# generated using pymatgen
data_Ti17F52
_symmetry_space_group_name_H-M   'P 1'
_cell_length_a   60.92203697
_cell_length_b   72.31766555
_cell_length_c   67.13272764
_cell_angle_alpha   90.49386681
_cell_angle_beta   90.20405936
_cell_angle_gamma   60.80733975
_symmetry_Int_Tables_number   1
_chemical_formula_structural   Ti17F52
_chemical_formula_sum   'Ti2431 F7436'
_cell_volume   258192.38059162
_cell_formula_units_Z   143
loop_
 _symmetry_equiv_pos_site_id
 _symmetry_equiv_pos_as_xyz
  1  'x, y, z'
loop_
 _atom_site_type_symbol
 _atom_site_label
 _atom_site_symmetry_multiplicity
 _atom_site_fract_x
 _atom_site_fract_y
 _atom_site_fract_z
 _atom_site_occupancy
  Ti  Ti0  1  0.00000000  0.00000000  0.38031375  1.0
  Ti  Ti1  1  0.00000000  0.07692308  0.38031375  1.0
  Ti  Ti2  1  0.00000000  0.15384615  0.38031375  1.0
  Ti  Ti3  1  0.00000000  0.23076923  0.38031375  1.0
  Ti  Ti4  1  0.00000000  0.30769231  0.38031375  1.0
  Ti  Ti5  1  0.00000000  0.38461538  0.38031375  1.0
  Ti  Ti6  1  0.00000000  0.46153846  0.38031375  1.0
  Ti  Ti7  1  0.00000000  0.53846154  0.38031375  1.0
  Ti  Ti8  1  0.00000000  0.61538462  0.38031375  1.0
  Ti  Ti9  1  0.00000000  0.69230769  0.38031375  1.0
  Ti  Ti10  1  0.00000000  0.76923077  0.38031375  1.0
  Ti  Ti11  1  0.00000000  0.84615385  0.38031375  1.0
  Ti  Ti12  1  0.00000000  0.92307692  0.38031375  1.0
  Ti  Ti13  1  0.09090909  0.00000000  0.38031375  1.0
  Ti  Ti14  1  0.09090909  0.07692308  0.38031375  1.0
  Ti  Ti15  1  0.09090909  0.15384615  0.38031375  1.0
  Ti  Ti16  1  0.09090909  0.23076923  0.38031375  1.0
  Ti  Ti17  1  0.09090909  0.30769231  0.38031375  1.0
  Ti  Ti18  1  0.09090909  0.38461538  0.38031375  1.0
  Ti  Ti19  1  0.09090909  0.46153846  0.38031375  1.0
  Ti  Ti20  1  0.09090909  0.53846154  0.38031375  1.0
  Ti  Ti21  1  0.09090909  0.61538462  0.38031375  1.0
  Ti  Ti22  1  0.09090909  0.69230769  0.38031375  1.0
  Ti  Ti23  1  0.09090909  0.76923077  0.38031375  1.0
  Ti  Ti24  1  0.09090909  0.84615385  0.38031375  1.0
  Ti  Ti25  1  0.09090909  0.92307692  0.38031375  1.0
  Ti  Ti26  1  0.18181818  0.00000000  0.38031375  1.0
  Ti  Ti27  1  0.18181818  0.07692308  0.38031375  1.0
  Ti  Ti28  1  0.18181818  0.15384615  0.38031375  1.0
  Ti  Ti29  1  0.18181818  0.23076923  0.38031375  1.0
  Ti  Ti30  1  0.18181818  0.30769231  0.38031375  1.0
  Ti  Ti31  1  0.18181818  0.38461538  0.38031375  1.0
  Ti  Ti32  1  0.18181818  0.46153846  0.38031375  1.0
  Ti  Ti33  1  0.18181818  0.53846154  0.38031375  1.0
  Ti  Ti34  1  0.18181818  0.61538462  0.38031375  1.0
  Ti  Ti35  1  0.18181818  0.69230769  0.38031375  1.0
  Ti  Ti36  1  0.18181818  0.76923077  0.38031375  1.0
  Ti  Ti37  1  0.18181818  0.84615385  0.38031375  1.0
  Ti  Ti38  1  0.18181818  0.92307692  0.38031375  1.0
  Ti  Ti39  1  0.27272727  0.00000000  0.38031375  1.0
  Ti  Ti40  1  0.27272727  0.07692308  0.38031375  1.0
  Ti  Ti41  1  0.27272727  0.15384615  0.38031375  1.0
  Ti  Ti42  1  0.27272727  0.23076923  0.38031375  1.0
  Ti  Ti43  1  0.27272727  0.30769231  0.38031375  1.0
  Ti  Ti44  1  0.27272727  0.38461538  0.38031375  1.0
  Ti  Ti45  1  0.27272727  0.46153846  0.38031375  1.0
  Ti  Ti46  1  0.27272727  0.53846154  0.38031375  1.0
  Ti  Ti47  1  0.27272727  0.61538462  0.38031375  1.0
  Ti  Ti48  1  0.27272727  0.69230769  0.38031375  1.0
  Ti  Ti49  1  0.27272727  0.76923077  0.38031375  1.0
  Ti  Ti50  1  0.27272727  0.84615385  0.38031375  1.0
  Ti  Ti51  1  0.27272727  0.92307692  0.38031375  1.0
  Ti  Ti52  1  0.36363636  0.00000000  0.38031375  1.0
  Ti  Ti53  1  0.36363636  0.07692308  0.38031375  1.0
  Ti  Ti54  1  0.36363636  0.15384615  0.38031375  1.0
  Ti  Ti55  1  0.36363636  0.23076923  0.38031375  1.0
  Ti  Ti56  1  0.36363636  0.30769231  0.38031375  1.0
  Ti  Ti57  1  0.36363636  0.38461538  0.38031375  1.0
  Ti  Ti58  1  0.36363636  0.46153846  0.38031375  1.0
  Ti  Ti59  1  0.36363636  0.53846154  0.38031375  1.0
  Ti  Ti60  1  0.36363636  0.61538462  0.38031375  1.0
  Ti  Ti61  1  0.36363636  0.69230769  0.38031375  1.0
  Ti  Ti62  1  0.36363636  0.76923077  0.38031375  1.0
  Ti  Ti63  1  0.36363636  0.84615385  0.38031375  1.0
  Ti  Ti64  1  0.36363636  0.92307692  0.38031375  1.0
  Ti  Ti65  1  0.45454545  0.00000000  0.38031375  1.0
  Ti  Ti66  1  0.45454545  0.07692308  0.38031375  1.0
  Ti  Ti67  1  0.45454545  0.15384615  0.38031375  1.0
  Ti  Ti68  1  0.45454545  0.23076923  0.38031375  1.0
  Ti  Ti69  1  0.45454545  0.30769231  0.38031375  1.0
  Ti  Ti70  1  0.45454545  0.38461538  0.38031375  1.0
  Ti  Ti71  1  0.45454545  0.46153846  0.38031375  1.0
  Ti  Ti72  1  0.45454545  0.53846154  0.38031375  1.0
  Ti  Ti73  1  0.45454545  0.61538462  0.38031375  1.0
  Ti  Ti74  1  0.45454545  0.69230769  0.38031375  1.0
  Ti  Ti75  1  0.45454545  0.76923077  0.38031375  1.0
  Ti  Ti76  1  0.45454545  0.84615385  0.38031375  1.0
  Ti  Ti77  1  0.45454545  0.92307692  0.38031375  1.0
  Ti  Ti78  1  0.54545455  0.00000000  0.38031375  1.0
  Ti  Ti79  1  0.54545455  0.07692308  0.38031375  1.0
  Ti  Ti80  1  0.54545455  0.15384615  0.38031375  1.0
  Ti  Ti81  1  0.54545455  0.23076923  0.38031375  1.0
  Ti  Ti82  1  0.54545455  0.30769231  0.38031375  1.0
  Ti  Ti83  1  0.54545455  0.38461538  0.38031375  1.0
  Ti  Ti84  1  0.54545455  0.46153846  0.38031375  1.0
  Ti  Ti85  1  0.54545455  0.53846154  0.38031375  1.0
  Ti  Ti86  1  0.54545455  0.61538462  0.38031375  1.0
  Ti  Ti87  1  0.54545455  0.69230769  0.38031375  1.0
  Ti  Ti88  1  0.54545455  0.76923077  0.38031375  1.0
  Ti  Ti89  1  0.54545455  0.84615385  0.38031375  1.0
  Ti  Ti90  1  0.54545455  0.92307692  0.38031375  1.0
  Ti  Ti91  1  0.63636364  0.00000000  0.38031375  1.0
  Ti  Ti92  1  0.63636364  0.07692308  0.38031375  1.0
  Ti  Ti93  1  0.63636364  0.15384615  0.38031375  1.0
  Ti  Ti94  1  0.63636364  0.23076923  0.38031375  1.0
  Ti  Ti95  1  0.63636364  0.30769231  0.38031375  1.0
  Ti  Ti96  1  0.63636364  0.38461538  0.38031375  1.0
  Ti  Ti97  1  0.63636364  0.46153846  0.38031375  1.0
  Ti  Ti98  1  0.63636364  0.53846154  0.38031375  1.0
  Ti  Ti99  1  0.63636364  0.61538462  0.38031375  1.0
  Ti  Ti100  1  0.63636364  0.69230769  0.38031375  1.0
  Ti  Ti101  1  0.63636364  0.76923077  0.38031375  1.0
  Ti  Ti102  1  0.63636364  0.84615385  0.38031375  1.0
  Ti  Ti103  1  0.63636364  0.92307692  0.38031375  1.0
  Ti  Ti104  1  0.72727273  0.00000000  0.38031375  1.0
  Ti  Ti105  1  0.72727273  0.07692308  0.38031375  1.0
  Ti  Ti106  1  0.72727273  0.15384615  0.38031375  1.0
  Ti  Ti107  1  0.72727273  0.23076923  0.38031375  1.0
  Ti  Ti108  1  0.72727273  0.30769231  0.38031375  1.0
  Ti  Ti109  1  0.72727273  0.38461538  0.38031375  1.0
  Ti  Ti110  1  0.72727273  0.46153846  0.38031375  1.0
  Ti  Ti111  1  0.72727273  0.53846154  0.38031375  1.0
  Ti  Ti112  1  0.72727273  0.61538462  0.38031375  1.0
  Ti  Ti113  1  0.72727273  0.69230769  0.38031375  1.0
  Ti  Ti114  1  0.72727273  0.76923077  0.38031375  1.0
  Ti  Ti115  1  0.72727273  0.84615385  0.38031375  1.0
  Ti  Ti116  1  0.72727273  0.92307692  0.38031375  1.0
  Ti  Ti117  1  0.81818182  0.00000000  0.38031375  1.0
  Ti  Ti118  1  0.81818182  0.07692308  0.38031375  1.0
  Ti  Ti119  1  0.81818182  0.15384615  0.38031375  1.0
  Ti  Ti120  1  0.81818182  0.23076923  0.38031375  1.0
  Ti  Ti121  1  0.81818182  0.30769231  0.38031375  1.0
  Ti  Ti122  1  0.81818182  0.38461538  0.38031375  1.0
  Ti  Ti123  1  0.81818182  0.46153846  0.38031375  1.0
  Ti  Ti124  1  0.81818182  0.53846154  0.38031375  1.0
  Ti  Ti125  1  0.81818182  0.61538462  0.38031375  1.0
  Ti  Ti126  1  0.81818182  0.69230769  0.38031375  1.0
  Ti  Ti127  1  0.81818182  0.76923077  0.38031375  1.0
  Ti  Ti128  1  0.81818182  0.84615385  0.38031375  1.0
  Ti  Ti129  1  0.81818182  0.92307692  0.38031375  1.0
  Ti  Ti130  1  0.90909091  0.00000000  0.38031375  1.0
  Ti  Ti131  1  0.90909091  0.07692308  0.38031375  1.0
  Ti  Ti132  1  0.90909091  0.15384615  0.38031375  1.0
  Ti  Ti133  1  0.90909091  0.23076923  0.38031375  1.0
  Ti  Ti134  1  0.90909091  0.30769231  0.38031375  1.0
  Ti  Ti135  1  0.90909091  0.38461538  0.38031375  1.0
  Ti  Ti136  1  0.90909091  0.46153846  0.38031375  1.0
  Ti  Ti137  1  0.90909091  0.53846154  0.38031375  1.0
  Ti  Ti138  1  0.90909091  0.61538462  0.38031375  1.0
  Ti  Ti139  1  0.90909091  0.69230769  0.38031375  1.0
  Ti  Ti140  1  0.90909091  0.76923077  0.38031375  1.0
  Ti  Ti141  1  0.90909091  0.84615385  0.38031375  1.0
  Ti  Ti142  1  0.90909091  0.92307692  0.38031375  1.0
  Ti  Ti143  1  0.03030303  0.02564103  0.24698042  1.0
  Ti  Ti144  1  0.03030303  0.10256410  0.24698042  1.0
  Ti  Ti145  1  0.03030303  0.17948718  0.24698042  1.0
  Ti  Ti146  1  0.03030303  0.25641026  0.24698042  1.0
  Ti  Ti147  1  0.03030303  0.33333333  0.24698042  1.0
  Ti  Ti148  1  0.03030303  0.41025641  0.24698042  1.0
  Ti  Ti149  1  0.03030303  0.48717949  0.24698042  1.0
  Ti  Ti150  1  0.03030303  0.56410256  0.24698042  1.0
  Ti  Ti151  1  0.03030303  0.64102564  0.24698042  1.0
  Ti  Ti152  1  0.03030303  0.71794872  0.24698042  1.0
  Ti  Ti153  1  0.03030303  0.79487179  0.24698042  1.0
  Ti  Ti154  1  0.03030303  0.87179487  0.24698042  1.0
  Ti  Ti155  1  0.03030303  0.94871795  0.24698042  1.0
  Ti  Ti156  1  0.12121212  0.02564103  0.24698042  1.0
  Ti  Ti157  1  0.12121212  0.10256410  0.24698042  1.0
  Ti  Ti158  1  0.12121212  0.17948718  0.24698042  1.0
  Ti  Ti159  1  0.12121212  0.25641026  0.24698042  1.0
  Ti  Ti160  1  0.12121212  0.33333333  0.24698042  1.0
  Ti  Ti161  1  0.12121212  0.41025641  0.24698042  1.0
  Ti  Ti162  1  0.12121212  0.48717949  0.24698042  1.0
  Ti  Ti163  1  0.12121212  0.56410256  0.24698042  1.0
  Ti  Ti164  1  0.12121212  0.64102564  0.24698042  1.0
  Ti  Ti165  1  0.12121212  0.71794872  0.24698042  1.0
  Ti  Ti166  1  0.12121212  0.79487179  0.24698042  1.0
  Ti  Ti167  1  0.12121212  0.87179487  0.24698042  1.0
  Ti  Ti168  1  0.12121212  0.94871795  0.24698042  1.0
  Ti  Ti169  1  0.21212121  0.02564103  0.24698042  1.0
  Ti  Ti170  1  0.21212121  0.10256410  0.24698042  1.0
  Ti  Ti171  1  0.21212121  0.17948718  0.24698042  1.0
  Ti  Ti172  1  0.21212121  0.25641026  0.24698042  1.0
  Ti  Ti173  1  0.21212121  0.33333333  0.24698042  1.0
  Ti  Ti174  1  0.21212121  0.41025641  0.24698042  1.0
  Ti  Ti175  1  0.21212121  0.48717949  0.24698042  1.0
  Ti  Ti176  1  0.21212121  0.56410256  0.24698042  1.0
  Ti  Ti177  1  0.21212121  0.64102564  0.24698042  1.0
  Ti  Ti178  1  0.21212121  0.71794872  0.24698042  1.0
  Ti  Ti179  1  0.21212121  0.79487179  0.24698042  1.0
  Ti  Ti180  1  0.21212121  0.87179487  0.24698042  1.0
  Ti  Ti181  1  0.21212121  0.94871795  0.24698042  1.0
  Ti  Ti182  1  0.30303030  0.02564103  0.24698042  1.0
  Ti  Ti183  1  0.30303030  0.10256410  0.24698042  1.0
  Ti  Ti184  1  0.30303030  0.17948718  0.24698042  1.0
  Ti  Ti185  1  0.30303030  0.25641026  0.24698042  1.0
  Ti  Ti186  1  0.30303030  0.33333333  0.24698042  1.0
  Ti  Ti187  1  0.30303030  0.41025641  0.24698042  1.0
  Ti  Ti188  1  0.30303030  0.48717949  0.24698042  1.0
  Ti  Ti189  1  0.30303030  0.56410256  0.24698042  1.0
  Ti  Ti190  1  0.30303030  0.64102564  0.24698042  1.0
  Ti  Ti191  1  0.30303030  0.71794872  0.24698042  1.0
  Ti  Ti192  1  0.30303030  0.79487179  0.24698042  1.0
  Ti  Ti193  1  0.30303030  0.87179487  0.24698042  1.0
  Ti  Ti194  1  0.30303030  0.94871795  0.24698042  1.0
  Ti  Ti195  1  0.39393939  0.02564103  0.24698042  1.0
  Ti  Ti196  1  0.39393939  0.10256410  0.24698042  1.0
  Ti  Ti197  1  0.39393939  0.17948718  0.24698042  1.0
  Ti  Ti198  1  0.39393939  0.25641026  0.24698042  1.0
  Ti  Ti199  1  0.39393939  0.33333333  0.24698042  1.0
  Ti  Ti200  1  0.39393939  0.41025641  0.24698042  1.0
  Ti  Ti201  1  0.39393939  0.48717949  0.24698042  1.0
  Ti  Ti202  1  0.39393939  0.56410256  0.24698042  1.0
  Ti  Ti203  1  0.39393939  0.64102564  0.24698042  1.0
  Ti  Ti204  1  0.39393939  0.71794872  0.24698042  1.0
  Ti  Ti205  1  0.39393939  0.79487179  0.24698042  1.0
  Ti  Ti206  1  0.39393939  0.87179487  0.24698042  1.0
  Ti  Ti207  1  0.39393939  0.94871795  0.24698042  1.0
  Ti  Ti208  1  0.48484848  0.02564103  0.24698042  1.0
  Ti  Ti209  1  0.48484848  0.10256410  0.24698042  1.0
  Ti  Ti210  1  0.48484848  0.17948718  0.24698042  1.0
  Ti  Ti211  1  0.48484848  0.25641026  0.24698042  1.0
  Ti  Ti212  1  0.48484848  0.33333333  0.24698042  1.0
  Ti  Ti213  1  0.48484848  0.41025641  0.24698042  1.0
  Ti  Ti214  1  0.48484848  0.48717949  0.24698042  1.0
  Ti  Ti215  1  0.48484848  0.56410256  0.24698042  1.0
  Ti  Ti216  1  0.48484848  0.64102564  0.24698042  1.0
  Ti  Ti217  1  0.48484848  0.71794872  0.24698042  1.0
  Ti  Ti218  1  0.48484848  0.79487179  0.24698042  1.0
  Ti  Ti219  1  0.48484848  0.87179487  0.24698042  1.0
  Ti  Ti220  1  0.48484848  0.94871795  0.24698042  1.0
  Ti  Ti221  1  0.57575758  0.02564103  0.24698042  1.0
  Ti  Ti222  1  0.57575758  0.10256410  0.24698042  1.0
  Ti  Ti223  1  0.57575758  0.17948718  0.24698042  1.0
  Ti  Ti224  1  0.57575758  0.25641026  0.24698042  1.0
  Ti  Ti225  1  0.57575758  0.33333333  0.24698042  1.0
  Ti  Ti226  1  0.57575758  0.41025641  0.24698042  1.0
  Ti  Ti227  1  0.57575758  0.48717949  0.24698042  1.0
  Ti  Ti228  1  0.57575758  0.56410256  0.24698042  1.0
  Ti  Ti229  1  0.57575758  0.64102564  0.24698042  1.0
  Ti  Ti230  1  0.57575758  0.71794872  0.24698042  1.0
  Ti  Ti231  1  0.57575758  0.79487179  0.24698042  1.0
  Ti  Ti232  1  0.57575758  0.87179487  0.24698042  1.0
  Ti  Ti233  1  0.57575758  0.94871795  0.24698042  1.0
  Ti  Ti234  1  0.66666667  0.02564103  0.24698042  1.0
  Ti  Ti235  1  0.66666667  0.10256410  0.24698042  1.0
  Ti  Ti236  1  0.66666667  0.17948718  0.24698042  1.0
  Ti  Ti237  1  0.66666667  0.25641026  0.24698042  1.0
  Ti  Ti238  1  0.66666667  0.33333333  0.24698042  1.0
  Ti  Ti239  1  0.66666667  0.41025641  0.24698042  1.0
  Ti  Ti240  1  0.66666667  0.48717949  0.24698042  1.0
  Ti  Ti241  1  0.66666667  0.56410256  0.24698042  1.0
  Ti  Ti242  1  0.66666667  0.64102564  0.24698042  1.0
  Ti  Ti243  1  0.66666667  0.71794872  0.24698042  1.0
  Ti  Ti244  1  0.66666667  0.79487179  0.24698042  1.0
  Ti  Ti245  1  0.66666667  0.87179487  0.24698042  1.0
  Ti  Ti246  1  0.66666667  0.94871795  0.24698042  1.0
  Ti  Ti247  1  0.75757576  0.02564103  0.24698042  1.0
  Ti  Ti248  1  0.75757576  0.10256410  0.24698042  1.0
  Ti  Ti249  1  0.75757576  0.17948718  0.24698042  1.0
  Ti  Ti250  1  0.75757576  0.25641026  0.24698042  1.0
  Ti  Ti251  1  0.75757576  0.33333333  0.24698042  1.0
  Ti  Ti252  1  0.75757576  0.41025641  0.24698042  1.0
  Ti  Ti253  1  0.75757576  0.48717949  0.24698042  1.0
  Ti  Ti254  1  0.75757576  0.56410256  0.24698042  1.0
  Ti  Ti255  1  0.75757576  0.64102564  0.24698042  1.0
  Ti  Ti256  1  0.75757576  0.71794872  0.24698042  1.0
  Ti  Ti257  1  0.75757576  0.79487179  0.24698042  1.0
  Ti  Ti258  1  0.75757576  0.87179487  0.24698042  1.0
  Ti  Ti259  1  0.75757576  0.94871795  0.24698042  1.0
  Ti  Ti260  1  0.84848485  0.02564103  0.24698042  1.0
  Ti  Ti261  1  0.84848485  0.10256410  0.24698042  1.0
  Ti  Ti262  1  0.84848485  0.17948718  0.24698042  1.0
  Ti  Ti263  1  0.84848485  0.25641026  0.24698042  1.0
  Ti  Ti264  1  0.84848485  0.33333333  0.24698042  1.0
  Ti  Ti265  1  0.84848485  0.41025641  0.24698042  1.0
  Ti  Ti266  1  0.84848485  0.48717949  0.24698042  1.0
  Ti  Ti267  1  0.84848485  0.56410256  0.24698042  1.0
  Ti  Ti268  1  0.84848485  0.64102564  0.24698042  1.0
  Ti  Ti269  1  0.84848485  0.71794872  0.24698042  1.0
  Ti  Ti270  1  0.84848485  0.79487179  0.24698042  1.0
  Ti  Ti271  1  0.84848485  0.87179487  0.24698042  1.0
  Ti  Ti272  1  0.84848485  0.94871795  0.24698042  1.0
  Ti  Ti273  1  0.93939394  0.02564103  0.24698042  1.0
  Ti  Ti274  1  0.93939394  0.10256410  0.24698042  1.0
  Ti  Ti275  1  0.93939394  0.17948718  0.24698042  1.0
  Ti  Ti276  1  0.93939394  0.25641026  0.24698042  1.0
  Ti  Ti277  1  0.93939394  0.33333333  0.24698042  1.0
  Ti  Ti278  1  0.93939394  0.41025641  0.24698042  1.0
  Ti  Ti279  1  0.93939394  0.48717949  0.24698042  1.0
  Ti  Ti280  1  0.93939394  0.56410256  0.24698042  1.0
  Ti  Ti281  1  0.93939394  0.64102564  0.24698042  1.0
  Ti  Ti282  1  0.93939394  0.71794872  0.24698042  1.0
  Ti  Ti283  1  0.93939394  0.79487179  0.24698042  1.0
  Ti  Ti284  1  0.93939394  0.87179487  0.24698042  1.0
  Ti  Ti285  1  0.93939394  0.94871795  0.24698042  1.0
  Ti  Ti286  1  0.06060606  0.05128205  0.31364708  1.0
  Ti  Ti287  1  0.06060606  0.12820513  0.31364708  1.0
  Ti  Ti288  1  0.06060606  0.20512821  0.31364708  1.0
  Ti  Ti289  1  0.06060606  0.28205128  0.31364708  1.0
  Ti  Ti290  1  0.06060606  0.35897436  0.31364708  1.0
  Ti  Ti291  1  0.06060606  0.43589744  0.31364708  1.0
  Ti  Ti292  1  0.06060606  0.51282051  0.31364708  1.0
  Ti  Ti293  1  0.06060606  0.58974359  0.31364708  1.0
  Ti  Ti294  1  0.06060606  0.66666667  0.31364708  1.0
  Ti  Ti295  1  0.06060606  0.74358974  0.31364708  1.0
  Ti  Ti296  1  0.06060606  0.82051282  0.31364708  1.0
  Ti  Ti297  1  0.06060606  0.89743590  0.31364708  1.0
  Ti  Ti298  1  0.06060606  0.97435897  0.31364708  1.0
  Ti  Ti299  1  0.15151515  0.05128205  0.31364708  1.0
  Ti  Ti300  1  0.15151515  0.12820513  0.31364708  1.0
  Ti  Ti301  1  0.15151515  0.20512821  0.31364708  1.0
  Ti  Ti302  1  0.15151515  0.28205128  0.31364708  1.0
  Ti  Ti303  1  0.15151515  0.35897436  0.31364708  1.0
  Ti  Ti304  1  0.15151515  0.43589744  0.31364708  1.0
  Ti  Ti305  1  0.15151515  0.51282051  0.31364708  1.0
  Ti  Ti306  1  0.15151515  0.58974359  0.31364708  1.0
  Ti  Ti307  1  0.15151515  0.66666667  0.31364708  1.0
  Ti  Ti308  1  0.15151515  0.74358974  0.31364708  1.0
  Ti  Ti309  1  0.15151515  0.82051282  0.31364708  1.0
  Ti  Ti310  1  0.15151515  0.89743590  0.31364708  1.0
  Ti  Ti311  1  0.15151515  0.97435897  0.31364708  1.0
  Ti  Ti312  1  0.24242424  0.05128205  0.31364708  1.0
  Ti  Ti313  1  0.24242424  0.12820513  0.31364708  1.0
  Ti  Ti314  1  0.24242424  0.20512821  0.31364708  1.0
  Ti  Ti315  1  0.24242424  0.28205128  0.31364708  1.0
  Ti  Ti316  1  0.24242424  0.35897436  0.31364708  1.0
  Ti  Ti317  1  0.24242424  0.43589744  0.31364708  1.0
  Ti  Ti318  1  0.24242424  0.51282051  0.31364708  1.0
  Ti  Ti319  1  0.24242424  0.58974359  0.31364708  1.0
  Ti  Ti320  1  0.24242424  0.66666667  0.31364708  1.0
  Ti  Ti321  1  0.24242424  0.74358974  0.31364708  1.0
  Ti  Ti322  1  0.24242424  0.82051282  0.31364708  1.0
  Ti  Ti323  1  0.24242424  0.89743590  0.31364708  1.0
  Ti  Ti324  1  0.24242424  0.97435897  0.31364708  1.0
  Ti  Ti325  1  0.33333333  0.05128205  0.31364708  1.0
  Ti  Ti326  1  0.33333333  0.12820513  0.31364708  1.0
  Ti  Ti327  1  0.33333333  0.20512821  0.31364708  1.0
  Ti  Ti328  1  0.33333333  0.28205128  0.31364708  1.0
  Ti  Ti329  1  0.33333333  0.35897436  0.31364708  1.0
  Ti  Ti330  1  0.33333333  0.43589744  0.31364708  1.0
  Ti  Ti331  1  0.33333333  0.51282051  0.31364708  1.0
  Ti  Ti332  1  0.33333333  0.58974359  0.31364708  1.0
  Ti  Ti333  1  0.33333333  0.66666667  0.31364708  1.0
  Ti  Ti334  1  0.33333333  0.74358974  0.31364708  1.0
  Ti  Ti335  1  0.33333333  0.82051282  0.31364708  1.0
  Ti  Ti336  1  0.33333333  0.89743590  0.31364708  1.0
  Ti  Ti337  1  0.33333333  0.97435897  0.31364708  1.0
  Ti  Ti338  1  0.42424242  0.05128205  0.31364708  1.0
  Ti  Ti339  1  0.42424242  0.12820513  0.31364708  1.0
  Ti  Ti340  1  0.42424242  0.20512821  0.31364708  1.0
  Ti  Ti341  1  0.42424242  0.28205128  0.31364708  1.0
  Ti  Ti342  1  0.42424242  0.35897436  0.31364708  1.0
  Ti  Ti343  1  0.42424242  0.43589744  0.31364708  1.0
  Ti  Ti344  1  0.42424242  0.51282051  0.31364708  1.0
  Ti  Ti345  1  0.42424242  0.58974359  0.31364708  1.0
  Ti  Ti346  1  0.42424242  0.66666667  0.31364708  1.0
  Ti  Ti347  1  0.42424242  0.74358974  0.31364708  1.0
  Ti  Ti348  1  0.42424242  0.82051282  0.31364708  1.0
  Ti  Ti349  1  0.42424242  0.89743590  0.31364708  1.0
  Ti  Ti350  1  0.42424242  0.97435897  0.31364708  1.0
  Ti  Ti351  1  0.51515152  0.05128205  0.31364708  1.0
  Ti  Ti352  1  0.51515152  0.12820513  0.31364708  1.0
  Ti  Ti353  1  0.51515152  0.20512821  0.31364708  1.0
  Ti  Ti354  1  0.51515152  0.28205128  0.31364708  1.0
  Ti  Ti355  1  0.51515152  0.35897436  0.31364708  1.0
  Ti  Ti356  1  0.51515152  0.43589744  0.31364708  1.0
  Ti  Ti357  1  0.51515152  0.51282051  0.31364708  1.0
  Ti  Ti358  1  0.51515152  0.58974359  0.31364708  1.0
  Ti  Ti359  1  0.51515152  0.66666667  0.31364708  1.0
  Ti  Ti360  1  0.51515152  0.74358974  0.31364708  1.0
  Ti  Ti361  1  0.51515152  0.82051282  0.31364708  1.0
  Ti  Ti362  1  0.51515152  0.89743590  0.31364708  1.0
  Ti  Ti363  1  0.51515152  0.97435897  0.31364708  1.0
  Ti  Ti364  1  0.60606061  0.05128205  0.31364708  1.0
  Ti  Ti365  1  0.60606061  0.12820513  0.31364708  1.0
  Ti  Ti366  1  0.60606061  0.20512821  0.31364708  1.0
  Ti  Ti367  1  0.60606061  0.28205128  0.31364708  1.0
  Ti  Ti368  1  0.60606061  0.35897436  0.31364708  1.0
  Ti  Ti369  1  0.60606061  0.43589744  0.31364708  1.0
  Ti  Ti370  1  0.60606061  0.51282051  0.31364708  1.0
  Ti  Ti371  1  0.60606061  0.58974359  0.31364708  1.0
  Ti  Ti372  1  0.60606061  0.66666667  0.31364708  1.0
  Ti  Ti373  1  0.60606061  0.74358974  0.31364708  1.0
  Ti  Ti374  1  0.60606061  0.82051282  0.31364708  1.0
  Ti  Ti375  1  0.60606061  0.89743590  0.31364708  1.0
  Ti  Ti376  1  0.60606061  0.97435897  0.31364708  1.0
  Ti  Ti377  1  0.69696970  0.05128205  0.31364708  1.0
  Ti  Ti378  1  0.69696970  0.12820513  0.31364708  1.0
  Ti  Ti379  1  0.69696970  0.20512821  0.31364708  1.0
  Ti  Ti380  1  0.69696970  0.28205128  0.31364708  1.0
  Ti  Ti381  1  0.69696970  0.35897436  0.31364708  1.0
  Ti  Ti382  1  0.69696970  0.43589744  0.31364708  1.0
  Ti  Ti383  1  0.69696970  0.51282051  0.31364708  1.0
  Ti  Ti384  1  0.69696970  0.58974359  0.31364708  1.0
  Ti  Ti385  1  0.69696970  0.66666667  0.31364708  1.0
  Ti  Ti386  1  0.69696970  0.74358974  0.31364708  1.0
  Ti  Ti387  1  0.69696970  0.82051282  0.31364708  1.0
  Ti  Ti388  1  0.69696970  0.89743590  0.31364708  1.0
  Ti  Ti389  1  0.69696970  0.97435897  0.31364708  1.0
  Ti  Ti390  1  0.78787879  0.05128205  0.31364708  1.0
  Ti  Ti391  1  0.78787879  0.12820513  0.31364708  1.0
  Ti  Ti392  1  0.78787879  0.20512821  0.31364708  1.0
  Ti  Ti393  1  0.78787879  0.28205128  0.31364708  1.0
  Ti  Ti394  1  0.78787879  0.35897436  0.31364708  1.0
  Ti  Ti395  1  0.78787879  0.43589744  0.31364708  1.0
  Ti  Ti396  1  0.78787879  0.51282051  0.31364708  1.0
  Ti  Ti397  1  0.78787879  0.58974359  0.31364708  1.0
  Ti  Ti398  1  0.78787879  0.66666667  0.31364708  1.0
  Ti  Ti399  1  0.78787879  0.74358974  0.31364708  1.0
  Ti  Ti400  1  0.78787879  0.82051282  0.31364708  1.0
  Ti  Ti401  1  0.78787879  0.89743590  0.31364708  1.0
  Ti  Ti402  1  0.78787879  0.97435897  0.31364708  1.0
  Ti  Ti403  1  0.87878788  0.05128205  0.31364708  1.0
  Ti  Ti404  1  0.87878788  0.12820513  0.31364708  1.0
  Ti  Ti405  1  0.87878788  0.20512821  0.31364708  1.0
  Ti  Ti406  1  0.87878788  0.28205128  0.31364708  1.0
  Ti  Ti407  1  0.87878788  0.35897436  0.31364708  1.0
  Ti  Ti408  1  0.87878788  0.43589744  0.31364708  1.0
  Ti  Ti409  1  0.87878788  0.51282051  0.31364708  1.0
  Ti  Ti410  1  0.87878788  0.58974359  0.31364708  1.0
  Ti  Ti411  1  0.87878788  0.66666667  0.31364708  1.0
  Ti  Ti412  1  0.87878788  0.74358974  0.31364708  1.0
  Ti  Ti413  1  0.87878788  0.82051282  0.31364708  1.0
  Ti  Ti414  1  0.87878788  0.89743590  0.31364708  1.0
  Ti  Ti415  1  0.87878788  0.97435897  0.31364708  1.0
  Ti  Ti416  1  0.96969697  0.05128205  0.31364708  1.0
  Ti  Ti417  1  0.96969697  0.12820513  0.31364708  1.0
  Ti  Ti418  1  0.96969697  0.20512821  0.31364708  1.0
  Ti  Ti419  1  0.96969697  0.28205128  0.31364708  1.0
  Ti  Ti420  1  0.96969697  0.35897436  0.31364708  1.0
  Ti  Ti421  1  0.96969697  0.43589744  0.31364708  1.0
  Ti  Ti422  1  0.96969697  0.51282051  0.31364708  1.0
  Ti  Ti423  1  0.96969697  0.58974359  0.31364708  1.0
  Ti  Ti424  1  0.96969697  0.66666667  0.31364708  1.0
  Ti  Ti425  1  0.96969697  0.74358974  0.31364708  1.0
  Ti  Ti426  1  0.96969697  0.82051282  0.31364708  1.0
  Ti  Ti427  1  0.96969697  0.89743590  0.31364708  1.0
  Ti  Ti428  1  0.96969697  0.97435897  0.31364708  1.0
  Ti  Ti429  1  0.00000000  0.07692308  0.28031375  1.0
  Ti  Ti430  1  0.00000000  0.15384615  0.28031375  1.0
  Ti  Ti431  1  0.00000000  0.23076923  0.28031375  1.0
  Ti  Ti432  1  0.00000000  0.30769231  0.28031375  1.0
  Ti  Ti433  1  0.00000000  0.38461538  0.28031375  1.0
  Ti  Ti434  1  0.00000000  0.46153846  0.28031375  1.0
  Ti  Ti435  1  0.00000000  0.53846154  0.28031375  1.0
  Ti  Ti436  1  0.00000000  0.61538462  0.28031375  1.0
  Ti  Ti437  1  0.00000000  0.69230769  0.28031375  1.0
  Ti  Ti438  1  0.00000000  0.76923077  0.28031375  1.0
  Ti  Ti439  1  0.00000000  0.84615385  0.28031375  1.0
  Ti  Ti440  1  0.00000000  0.92307692  0.28031375  1.0
  Ti  Ti441  1  0.00000000  0.00000000  0.28031375  1.0
  Ti  Ti442  1  0.09090909  0.07692308  0.28031375  1.0
  Ti  Ti443  1  0.09090909  0.15384615  0.28031375  1.0
  Ti  Ti444  1  0.09090909  0.23076923  0.28031375  1.0
  Ti  Ti445  1  0.09090909  0.30769231  0.28031375  1.0
  Ti  Ti446  1  0.09090909  0.38461538  0.28031375  1.0
  Ti  Ti447  1  0.09090909  0.46153846  0.28031375  1.0
  Ti  Ti448  1  0.09090909  0.53846154  0.28031375  1.0
  Ti  Ti449  1  0.09090909  0.61538462  0.28031375  1.0
  Ti  Ti450  1  0.09090909  0.69230769  0.28031375  1.0
  Ti  Ti451  1  0.09090909  0.76923077  0.28031375  1.0
  Ti  Ti452  1  0.09090909  0.84615385  0.28031375  1.0
  Ti  Ti453  1  0.09090909  0.92307692  0.28031375  1.0
  Ti  Ti454  1  0.09090909  0.00000000  0.28031375  1.0
  Ti  Ti455  1  0.18181818  0.07692308  0.28031375  1.0
  Ti  Ti456  1  0.18181818  0.15384615  0.28031375  1.0
  Ti  Ti457  1  0.18181818  0.23076923  0.28031375  1.0
  Ti  Ti458  1  0.18181818  0.30769231  0.28031375  1.0
  Ti  Ti459  1  0.18181818  0.38461538  0.28031375  1.0
  Ti  Ti460  1  0.18181818  0.46153846  0.28031375  1.0
  Ti  Ti461  1  0.18181818  0.53846154  0.28031375  1.0
  Ti  Ti462  1  0.18181818  0.61538462  0.28031375  1.0
  Ti  Ti463  1  0.18181818  0.69230769  0.28031375  1.0
  Ti  Ti464  1  0.18181818  0.76923077  0.28031375  1.0
  Ti  Ti465  1  0.18181818  0.84615385  0.28031375  1.0
  Ti  Ti466  1  0.18181818  0.92307692  0.28031375  1.0
  Ti  Ti467  1  0.18181818  0.00000000  0.28031375  1.0
  Ti  Ti468  1  0.27272727  0.07692308  0.28031375  1.0
  Ti  Ti469  1  0.27272727  0.15384615  0.28031375  1.0
  Ti  Ti470  1  0.27272727  0.23076923  0.28031375  1.0
  Ti  Ti471  1  0.27272727  0.30769231  0.28031375  1.0
  Ti  Ti472  1  0.27272727  0.38461538  0.28031375  1.0
  Ti  Ti473  1  0.27272727  0.46153846  0.28031375  1.0
  Ti  Ti474  1  0.27272727  0.53846154  0.28031375  1.0
  Ti  Ti475  1  0.27272727  0.61538462  0.28031375  1.0
  Ti  Ti476  1  0.27272727  0.69230769  0.28031375  1.0
  Ti  Ti477  1  0.27272727  0.76923077  0.28031375  1.0
  Ti  Ti478  1  0.27272727  0.84615385  0.28031375  1.0
  Ti  Ti479  1  0.27272727  0.92307692  0.28031375  1.0
  Ti  Ti480  1  0.27272727  0.00000000  0.28031375  1.0
  Ti  Ti481  1  0.36363636  0.07692308  0.28031375  1.0
  Ti  Ti482  1  0.36363636  0.15384615  0.28031375  1.0
  Ti  Ti483  1  0.36363636  0.23076923  0.28031375  1.0
  Ti  Ti484  1  0.36363636  0.30769231  0.28031375  1.0
  Ti  Ti485  1  0.36363636  0.38461538  0.28031375  1.0
  Ti  Ti486  1  0.36363636  0.46153846  0.28031375  1.0
  Ti  Ti487  1  0.36363636  0.53846154  0.28031375  1.0
  Ti  Ti488  1  0.36363636  0.61538462  0.28031375  1.0
  Ti  Ti489  1  0.36363636  0.69230769  0.28031375  1.0
  Ti  Ti490  1  0.36363636  0.76923077  0.28031375  1.0
  Ti  Ti491  1  0.36363636  0.84615385  0.28031375  1.0
  Ti  Ti492  1  0.36363636  0.92307692  0.28031375  1.0
  Ti  Ti493  1  0.36363636  0.00000000  0.28031375  1.0
  Ti  Ti494  1  0.45454545  0.07692308  0.28031375  1.0
  Ti  Ti495  1  0.45454545  0.15384615  0.28031375  1.0
  Ti  Ti496  1  0.45454545  0.23076923  0.28031375  1.0
  Ti  Ti497  1  0.45454545  0.30769231  0.28031375  1.0
  Ti  Ti498  1  0.45454545  0.38461538  0.28031375  1.0
  Ti  Ti499  1  0.45454545  0.46153846  0.28031375  1.0
  Ti  Ti500  1  0.45454545  0.53846154  0.28031375  1.0
  Ti  Ti501  1  0.45454545  0.61538462  0.28031375  1.0
  Ti  Ti502  1  0.45454545  0.69230769  0.28031375  1.0
  Ti  Ti503  1  0.45454545  0.76923077  0.28031375  1.0
  Ti  Ti504  1  0.45454545  0.84615385  0.28031375  1.0
  Ti  Ti505  1  0.45454545  0.92307692  0.28031375  1.0
  Ti  Ti506  1  0.45454545  0.00000000  0.28031375  1.0
  Ti  Ti507  1  0.54545455  0.07692308  0.28031375  1.0
  Ti  Ti508  1  0.54545455  0.15384615  0.28031375  1.0
  Ti  Ti509  1  0.54545455  0.23076923  0.28031375  1.0
  Ti  Ti510  1  0.54545455  0.30769231  0.28031375  1.0
  Ti  Ti511  1  0.54545455  0.38461538  0.28031375  1.0
  Ti  Ti512  1  0.54545455  0.46153846  0.28031375  1.0
  Ti  Ti513  1  0.54545455  0.53846154  0.28031375  1.0
  Ti  Ti514  1  0.54545455  0.61538462  0.28031375  1.0
  Ti  Ti515  1  0.54545455  0.69230769  0.28031375  1.0
  Ti  Ti516  1  0.54545455  0.76923077  0.28031375  1.0
  Ti  Ti517  1  0.54545455  0.84615385  0.28031375  1.0
  Ti  Ti518  1  0.54545455  0.92307692  0.28031375  1.0
  Ti  Ti519  1  0.54545455  0.00000000  0.28031375  1.0
  Ti  Ti520  1  0.63636364  0.07692308  0.28031375  1.0
  Ti  Ti521  1  0.63636364  0.15384615  0.28031375  1.0
  Ti  Ti522  1  0.63636364  0.23076923  0.28031375  1.0
  Ti  Ti523  1  0.63636364  0.30769231  0.28031375  1.0
  Ti  Ti524  1  0.63636364  0.38461538  0.28031375  1.0
  Ti  Ti525  1  0.63636364  0.46153846  0.28031375  1.0
  Ti  Ti526  1  0.63636364  0.53846154  0.28031375  1.0
  Ti  Ti527  1  0.63636364  0.61538462  0.28031375  1.0
  Ti  Ti528  1  0.63636364  0.69230769  0.28031375  1.0
  Ti  Ti529  1  0.63636364  0.76923077  0.28031375  1.0
  Ti  Ti530  1  0.63636364  0.84615385  0.28031375  1.0
  Ti  Ti531  1  0.63636364  0.92307692  0.28031375  1.0
  Ti  Ti532  1  0.63636364  0.00000000  0.28031375  1.0
  Ti  Ti533  1  0.72727273  0.07692308  0.28031375  1.0
  Ti  Ti534  1  0.72727273  0.15384615  0.28031375  1.0
  Ti  Ti535  1  0.72727273  0.23076923  0.28031375  1.0
  Ti  Ti536  1  0.72727273  0.30769231  0.28031375  1.0
  Ti  Ti537  1  0.72727273  0.38461538  0.28031375  1.0
  Ti  Ti538  1  0.72727273  0.46153846  0.28031375  1.0
  Ti  Ti539  1  0.72727273  0.53846154  0.28031375  1.0
  Ti  Ti540  1  0.72727273  0.61538462  0.28031375  1.0
  Ti  Ti541  1  0.72727273  0.69230769  0.28031375  1.0
  Ti  Ti542  1  0.72727273  0.76923077  0.28031375  1.0
  Ti  Ti543  1  0.72727273  0.84615385  0.28031375  1.0
  Ti  Ti544  1  0.72727273  0.92307692  0.28031375  1.0
  Ti  Ti545  1  0.72727273  0.00000000  0.28031375  1.0
  Ti  Ti546  1  0.81818182  0.07692308  0.28031375  1.0
  Ti  Ti547  1  0.81818182  0.15384615  0.28031375  1.0
  Ti  Ti548  1  0.81818182  0.23076923  0.28031375  1.0
  Ti  Ti549  1  0.81818182  0.30769231  0.28031375  1.0
  Ti  Ti550  1  0.81818182  0.38461538  0.28031375  1.0
  Ti  Ti551  1  0.81818182  0.46153846  0.28031375  1.0
  Ti  Ti552  1  0.81818182  0.53846154  0.28031375  1.0
  Ti  Ti553  1  0.81818182  0.61538462  0.28031375  1.0
  Ti  Ti554  1  0.81818182  0.69230769  0.28031375  1.0
  Ti  Ti555  1  0.81818182  0.76923077  0.28031375  1.0
  Ti  Ti556  1  0.81818182  0.84615385  0.28031375  1.0
  Ti  Ti557  1  0.81818182  0.92307692  0.28031375  1.0
  Ti  Ti558  1  0.81818182  0.00000000  0.28031375  1.0
  Ti  Ti559  1  0.90909091  0.07692308  0.28031375  1.0
  Ti  Ti560  1  0.90909091  0.15384615  0.28031375  1.0
  Ti  Ti561  1  0.90909091  0.23076923  0.28031375  1.0
  Ti  Ti562  1  0.90909091  0.30769231  0.28031375  1.0
  Ti  Ti563  1  0.90909091  0.38461538  0.28031375  1.0
  Ti  Ti564  1  0.90909091  0.46153846  0.28031375  1.0
  Ti  Ti565  1  0.90909091  0.53846154  0.28031375  1.0
  Ti  Ti566  1  0.90909091  0.61538462  0.28031375  1.0
  Ti  Ti567  1  0.90909091  0.69230769  0.28031375  1.0
  Ti  Ti568  1  0.90909091  0.76923077  0.28031375  1.0
  Ti  Ti569  1  0.90909091  0.84615385  0.28031375  1.0
  Ti  Ti570  1  0.90909091  0.92307692  0.28031375  1.0
  Ti  Ti571  1  0.90909091  0.00000000  0.28031375  1.0
  Ti  Ti572  1  0.03030303  0.02564103  0.34698042  1.0
  Ti  Ti573  1  0.03030303  0.10256410  0.34698042  1.0
  Ti  Ti574  1  0.03030303  0.17948718  0.34698042  1.0
  Ti  Ti575  1  0.03030303  0.25641026  0.34698042  1.0
  Ti  Ti576  1  0.03030303  0.33333333  0.34698042  1.0
  Ti  Ti577  1  0.03030303  0.41025641  0.34698042  1.0
  Ti  Ti578  1  0.03030303  0.48717949  0.34698042  1.0
  Ti  Ti579  1  0.03030303  0.56410256  0.34698042  1.0
  Ti  Ti580  1  0.03030303  0.64102564  0.34698042  1.0
  Ti  Ti581  1  0.03030303  0.71794872  0.34698042  1.0
  Ti  Ti582  1  0.03030303  0.79487179  0.34698042  1.0
  Ti  Ti583  1  0.03030303  0.87179487  0.34698042  1.0
  Ti  Ti584  1  0.03030303  0.94871795  0.34698042  1.0
  Ti  Ti585  1  0.12121212  0.02564103  0.34698042  1.0
  Ti  Ti586  1  0.12121212  0.10256410  0.34698042  1.0
  Ti  Ti587  1  0.12121212  0.17948718  0.34698042  1.0
  Ti  Ti588  1  0.12121212  0.25641026  0.34698042  1.0
  Ti  Ti589  1  0.12121212  0.33333333  0.34698042  1.0
  Ti  Ti590  1  0.12121212  0.41025641  0.34698042  1.0
  Ti  Ti591  1  0.12121212  0.48717949  0.34698042  1.0
  Ti  Ti592  1  0.12121212  0.56410256  0.34698042  1.0
  Ti  Ti593  1  0.12121212  0.64102564  0.34698042  1.0
  Ti  Ti594  1  0.12121212  0.71794872  0.34698042  1.0
  Ti  Ti595  1  0.12121212  0.79487179  0.34698042  1.0
  Ti  Ti596  1  0.12121212  0.87179487  0.34698042  1.0
  Ti  Ti597  1  0.12121212  0.94871795  0.34698042  1.0
  Ti  Ti598  1  0.21212121  0.02564103  0.34698042  1.0
  Ti  Ti599  1  0.21212121  0.10256410  0.34698042  1.0
  Ti  Ti600  1  0.21212121  0.17948718  0.34698042  1.0
  Ti  Ti601  1  0.21212121  0.25641026  0.34698042  1.0
  Ti  Ti602  1  0.21212121  0.33333333  0.34698042  1.0
  Ti  Ti603  1  0.21212121  0.41025641  0.34698042  1.0
  Ti  Ti604  1  0.21212121  0.48717949  0.34698042  1.0
  Ti  Ti605  1  0.21212121  0.56410256  0.34698042  1.0
  Ti  Ti606  1  0.21212121  0.64102564  0.34698042  1.0
  Ti  Ti607  1  0.21212121  0.71794872  0.34698042  1.0
  Ti  Ti608  1  0.21212121  0.79487179  0.34698042  1.0
  Ti  Ti609  1  0.21212121  0.87179487  0.34698042  1.0
  Ti  Ti610  1  0.21212121  0.94871795  0.34698042  1.0
  Ti  Ti611  1  0.30303030  0.02564103  0.34698042  1.0
  Ti  Ti612  1  0.30303030  0.10256410  0.34698042  1.0
  Ti  Ti613  1  0.30303030  0.17948718  0.34698042  1.0
  Ti  Ti614  1  0.30303030  0.25641026  0.34698042  1.0
  Ti  Ti615  1  0.30303030  0.33333333  0.34698042  1.0
  Ti  Ti616  1  0.30303030  0.41025641  0.34698042  1.0
  Ti  Ti617  1  0.30303030  0.48717949  0.34698042  1.0
  Ti  Ti618  1  0.30303030  0.56410256  0.34698042  1.0
  Ti  Ti619  1  0.30303030  0.64102564  0.34698042  1.0
  Ti  Ti620  1  0.30303030  0.71794872  0.34698042  1.0
  Ti  Ti621  1  0.30303030  0.79487179  0.34698042  1.0
  Ti  Ti622  1  0.30303030  0.87179487  0.34698042  1.0
  Ti  Ti623  1  0.30303030  0.94871795  0.34698042  1.0
  Ti  Ti624  1  0.39393939  0.02564103  0.34698042  1.0
  Ti  Ti625  1  0.39393939  0.10256410  0.34698042  1.0
  Ti  Ti626  1  0.39393939  0.17948718  0.34698042  1.0
  Ti  Ti627  1  0.39393939  0.25641026  0.34698042  1.0
  Ti  Ti628  1  0.39393939  0.33333333  0.34698042  1.0
  Ti  Ti629  1  0.39393939  0.41025641  0.34698042  1.0
  Ti  Ti630  1  0.39393939  0.48717949  0.34698042  1.0
  Ti  Ti631  1  0.39393939  0.56410256  0.34698042  1.0
  Ti  Ti632  1  0.39393939  0.64102564  0.34698042  1.0
  Ti  Ti633  1  0.39393939  0.71794872  0.34698042  1.0
  Ti  Ti634  1  0.39393939  0.79487179  0.34698042  1.0
  Ti  Ti635  1  0.39393939  0.87179487  0.34698042  1.0
  Ti  Ti636  1  0.39393939  0.94871795  0.34698042  1.0
  Ti  Ti637  1  0.48484848  0.02564103  0.34698042  1.0
  Ti  Ti638  1  0.48484848  0.10256410  0.34698042  1.0
  Ti  Ti639  1  0.48484848  0.17948718  0.34698042  1.0
  Ti  Ti640  1  0.48484848  0.25641026  0.34698042  1.0
  Ti  Ti641  1  0.48484848  0.33333333  0.34698042  1.0
  Ti  Ti642  1  0.48484848  0.41025641  0.34698042  1.0
  Ti  Ti643  1  0.48484848  0.48717949  0.34698042  1.0
  Ti  Ti644  1  0.48484848  0.56410256  0.34698042  1.0
  Ti  Ti645  1  0.48484848  0.64102564  0.34698042  1.0
  Ti  Ti646  1  0.48484848  0.71794872  0.34698042  1.0
  Ti  Ti647  1  0.48484848  0.79487179  0.34698042  1.0
  Ti  Ti648  1  0.48484848  0.87179487  0.34698042  1.0
  Ti  Ti649  1  0.48484848  0.94871795  0.34698042  1.0
  Ti  Ti650  1  0.57575758  0.02564103  0.34698042  1.0
  Ti  Ti651  1  0.57575758  0.10256410  0.34698042  1.0
  Ti  Ti652  1  0.57575758  0.17948718  0.34698042  1.0
  Ti  Ti653  1  0.57575758  0.25641026  0.34698042  1.0
  Ti  Ti654  1  0.57575758  0.33333333  0.34698042  1.0
  Ti  Ti655  1  0.57575758  0.41025641  0.34698042  1.0
  Ti  Ti656  1  0.57575758  0.48717949  0.34698042  1.0
  Ti  Ti657  1  0.57575758  0.56410256  0.34698042  1.0
  Ti  Ti658  1  0.57575758  0.64102564  0.34698042  1.0
  Ti  Ti659  1  0.57575758  0.71794872  0.34698042  1.0
  Ti  Ti660  1  0.57575758  0.79487179  0.34698042  1.0
  Ti  Ti661  1  0.57575758  0.87179487  0.34698042  1.0
  Ti  Ti662  1  0.57575758  0.94871795  0.34698042  1.0
  Ti  Ti663  1  0.66666667  0.02564103  0.34698042  1.0
  Ti  Ti664  1  0.66666667  0.10256410  0.34698042  1.0
  Ti  Ti665  1  0.66666667  0.17948718  0.34698042  1.0
  Ti  Ti666  1  0.66666667  0.25641026  0.34698042  1.0
  Ti  Ti667  1  0.66666667  0.33333333  0.34698042  1.0
  Ti  Ti668  1  0.66666667  0.41025641  0.34698042  1.0
  Ti  Ti669  1  0.66666667  0.48717949  0.34698042  1.0
  Ti  Ti670  1  0.66666667  0.56410256  0.34698042  1.0
  Ti  Ti671  1  0.66666667  0.64102564  0.34698042  1.0
  Ti  Ti672  1  0.66666667  0.71794872  0.34698042  1.0
  Ti  Ti673  1  0.66666667  0.79487179  0.34698042  1.0
  Ti  Ti674  1  0.66666667  0.87179487  0.34698042  1.0
  Ti  Ti675  1  0.66666667  0.94871795  0.34698042  1.0
  Ti  Ti676  1  0.75757576  0.02564103  0.34698042  1.0
  Ti  Ti677  1  0.75757576  0.10256410  0.34698042  1.0
  Ti  Ti678  1  0.75757576  0.17948718  0.34698042  1.0
  Ti  Ti679  1  0.75757576  0.25641026  0.34698042  1.0
  Ti  Ti680  1  0.75757576  0.33333333  0.34698042  1.0
  Ti  Ti681  1  0.75757576  0.41025641  0.34698042  1.0
  Ti  Ti682  1  0.75757576  0.48717949  0.34698042  1.0
  Ti  Ti683  1  0.75757576  0.56410256  0.34698042  1.0
  Ti  Ti684  1  0.75757576  0.64102564  0.34698042  1.0
  Ti  Ti685  1  0.75757576  0.71794872  0.34698042  1.0
  Ti  Ti686  1  0.75757576  0.79487179  0.34698042  1.0
  Ti  Ti687  1  0.75757576  0.87179487  0.34698042  1.0
  Ti  Ti688  1  0.75757576  0.94871795  0.34698042  1.0
  Ti  Ti689  1  0.84848485  0.02564103  0.34698042  1.0
  Ti  Ti690  1  0.84848485  0.10256410  0.34698042  1.0
  Ti  Ti691  1  0.84848485  0.17948718  0.34698042  1.0
  Ti  Ti692  1  0.84848485  0.25641026  0.34698042  1.0
  Ti  Ti693  1  0.84848485  0.33333333  0.34698042  1.0
  Ti  Ti694  1  0.84848485  0.41025641  0.34698042  1.0
  Ti  Ti695  1  0.84848485  0.48717949  0.34698042  1.0
  Ti  Ti696  1  0.84848485  0.56410256  0.34698042  1.0
  Ti  Ti697  1  0.84848485  0.64102564  0.34698042  1.0
  Ti  Ti698  1  0.84848485  0.71794872  0.34698042  1.0
  Ti  Ti699  1  0.84848485  0.79487179  0.34698042  1.0
  Ti  Ti700  1  0.84848485  0.87179487  0.34698042  1.0
  Ti  Ti701  1  0.84848485  0.94871795  0.34698042  1.0
  Ti  Ti702  1  0.93939394  0.02564103  0.34698042  1.0
  Ti  Ti703  1  0.93939394  0.10256410  0.34698042  1.0
  Ti  Ti704  1  0.93939394  0.17948718  0.34698042  1.0
  Ti  Ti705  1  0.93939394  0.25641026  0.34698042  1.0
  Ti  Ti706  1  0.93939394  0.33333333  0.34698042  1.0
  Ti  Ti707  1  0.93939394  0.41025641  0.34698042  1.0
  Ti  Ti708  1  0.93939394  0.48717949  0.34698042  1.0
  Ti  Ti709  1  0.93939394  0.56410256  0.34698042  1.0
  Ti  Ti710  1  0.93939394  0.64102564  0.34698042  1.0
  Ti  Ti711  1  0.93939394  0.71794872  0.34698042  1.0
  Ti  Ti712  1  0.93939394  0.79487179  0.34698042  1.0
  Ti  Ti713  1  0.93939394  0.87179487  0.34698042  1.0
  Ti  Ti714  1  0.93939394  0.94871795  0.34698042  1.0
  Ti  Ti715  1  0.00000000  0.00000000  0.58031375  1.0
  Ti  Ti716  1  0.00000000  0.07692308  0.58031375  1.0
  Ti  Ti717  1  0.00000000  0.15384615  0.58031375  1.0
  Ti  Ti718  1  0.00000000  0.23076923  0.58031375  1.0
  Ti  Ti719  1  0.00000000  0.30769231  0.58031375  1.0
  Ti  Ti720  1  0.00000000  0.38461538  0.58031375  1.0
  Ti  Ti721  1  0.00000000  0.46153846  0.58031375  1.0
  Ti  Ti722  1  0.00000000  0.53846154  0.58031375  1.0
  Ti  Ti723  1  0.00000000  0.61538462  0.58031375  1.0
  Ti  Ti724  1  0.00000000  0.69230769  0.58031375  1.0
  Ti  Ti725  1  0.00000000  0.76923077  0.58031375  1.0
  Ti  Ti726  1  0.00000000  0.84615385  0.58031375  1.0
  Ti  Ti727  1  0.00000000  0.92307692  0.58031375  1.0
  Ti  Ti728  1  0.09090909  0.00000000  0.58031375  1.0
  Ti  Ti729  1  0.09090909  0.07692308  0.58031375  1.0
  Ti  Ti730  1  0.09090909  0.15384615  0.58031375  1.0
  Ti  Ti731  1  0.09090909  0.23076923  0.58031375  1.0
  Ti  Ti732  1  0.09090909  0.30769231  0.58031375  1.0
  Ti  Ti733  1  0.09090909  0.38461538  0.58031375  1.0
  Ti  Ti734  1  0.09090909  0.46153846  0.58031375  1.0
  Ti  Ti735  1  0.09090909  0.53846154  0.58031375  1.0
  Ti  Ti736  1  0.09090909  0.61538462  0.58031375  1.0
  Ti  Ti737  1  0.09090909  0.69230769  0.58031375  1.0
  Ti  Ti738  1  0.09090909  0.76923077  0.58031375  1.0
  Ti  Ti739  1  0.09090909  0.84615385  0.58031375  1.0
  Ti  Ti740  1  0.09090909  0.92307692  0.58031375  1.0
  Ti  Ti741  1  0.18181818  0.00000000  0.58031375  1.0
  Ti  Ti742  1  0.18181818  0.07692308  0.58031375  1.0
  Ti  Ti743  1  0.18181818  0.15384615  0.58031375  1.0
  Ti  Ti744  1  0.18181818  0.23076923  0.58031375  1.0
  Ti  Ti745  1  0.18181818  0.30769231  0.58031375  1.0
  Ti  Ti746  1  0.18181818  0.38461538  0.58031375  1.0
  Ti  Ti747  1  0.18181818  0.46153846  0.58031375  1.0
  Ti  Ti748  1  0.18181818  0.53846154  0.58031375  1.0
  Ti  Ti749  1  0.18181818  0.61538462  0.58031375  1.0
  Ti  Ti750  1  0.18181818  0.69230769  0.58031375  1.0
  Ti  Ti751  1  0.18181818  0.76923077  0.58031375  1.0
  Ti  Ti752  1  0.18181818  0.84615385  0.58031375  1.0
  Ti  Ti753  1  0.18181818  0.92307692  0.58031375  1.0
  Ti  Ti754  1  0.27272727  0.00000000  0.58031375  1.0
  Ti  Ti755  1  0.27272727  0.07692308  0.58031375  1.0
  Ti  Ti756  1  0.27272727  0.15384615  0.58031375  1.0
  Ti  Ti757  1  0.27272727  0.23076923  0.58031375  1.0
  Ti  Ti758  1  0.27272727  0.30769231  0.58031375  1.0
  Ti  Ti759  1  0.27272727  0.38461538  0.58031375  1.0
  Ti  Ti760  1  0.27272727  0.46153846  0.58031375  1.0
  Ti  Ti761  1  0.27272727  0.53846154  0.58031375  1.0
  Ti  Ti762  1  0.27272727  0.61538462  0.58031375  1.0
  Ti  Ti763  1  0.27272727  0.69230769  0.58031375  1.0
  Ti  Ti764  1  0.27272727  0.76923077  0.58031375  1.0
  Ti  Ti765  1  0.27272727  0.84615385  0.58031375  1.0
  Ti  Ti766  1  0.27272727  0.92307692  0.58031375  1.0
  Ti  Ti767  1  0.36363636  0.00000000  0.58031375  1.0
  Ti  Ti768  1  0.36363636  0.07692308  0.58031375  1.0
  Ti  Ti769  1  0.36363636  0.15384615  0.58031375  1.0
  Ti  Ti770  1  0.36363636  0.23076923  0.58031375  1.0
  Ti  Ti771  1  0.36363636  0.30769231  0.58031375  1.0
  Ti  Ti772  1  0.36363636  0.38461538  0.58031375  1.0
  Ti  Ti773  1  0.36363636  0.46153846  0.58031375  1.0
  Ti  Ti774  1  0.36363636  0.53846154  0.58031375  1.0
  Ti  Ti775  1  0.36363636  0.61538462  0.58031375  1.0
  Ti  Ti776  1  0.36363636  0.69230769  0.58031375  1.0
  Ti  Ti777  1  0.36363636  0.76923077  0.58031375  1.0
  Ti  Ti778  1  0.36363636  0.84615385  0.58031375  1.0
  Ti  Ti779  1  0.36363636  0.92307692  0.58031375  1.0
  Ti  Ti780  1  0.45454545  0.00000000  0.58031375  1.0
  Ti  Ti781  1  0.45454545  0.07692308  0.58031375  1.0
  Ti  Ti782  1  0.45454545  0.15384615  0.58031375  1.0
  Ti  Ti783  1  0.45454545  0.23076923  0.58031375  1.0
  Ti  Ti784  1  0.45454545  0.30769231  0.58031375  1.0
  Ti  Ti785  1  0.45454545  0.38461538  0.58031375  1.0
  Ti  Ti786  1  0.45454545  0.46153846  0.58031375  1.0
  Ti  Ti787  1  0.45454545  0.53846154  0.58031375  1.0
  Ti  Ti788  1  0.45454545  0.61538462  0.58031375  1.0
  Ti  Ti789  1  0.45454545  0.69230769  0.58031375  1.0
  Ti  Ti790  1  0.45454545  0.76923077  0.58031375  1.0
  Ti  Ti791  1  0.45454545  0.84615385  0.58031375  1.0
  Ti  Ti792  1  0.45454545  0.92307692  0.58031375  1.0
  Ti  Ti793  1  0.54545455  0.00000000  0.58031375  1.0
  Ti  Ti794  1  0.54545455  0.07692308  0.58031375  1.0
  Ti  Ti795  1  0.54545455  0.15384615  0.58031375  1.0
  Ti  Ti796  1  0.54545455  0.23076923  0.58031375  1.0
  Ti  Ti797  1  0.54545455  0.30769231  0.58031375  1.0
  Ti  Ti798  1  0.54545455  0.38461538  0.58031375  1.0
  Ti  Ti799  1  0.54545455  0.46153846  0.58031375  1.0
  Ti  Ti800  1  0.54545455  0.53846154  0.58031375  1.0
  Ti  Ti801  1  0.54545455  0.61538462  0.58031375  1.0
  Ti  Ti802  1  0.54545455  0.69230769  0.58031375  1.0
  Ti  Ti803  1  0.54545455  0.76923077  0.58031375  1.0
  Ti  Ti804  1  0.54545455  0.84615385  0.58031375  1.0
  Ti  Ti805  1  0.54545455  0.92307692  0.58031375  1.0
  Ti  Ti806  1  0.63636364  0.00000000  0.58031375  1.0
  Ti  Ti807  1  0.63636364  0.07692308  0.58031375  1.0
  Ti  Ti808  1  0.63636364  0.15384615  0.58031375  1.0
  Ti  Ti809  1  0.63636364  0.23076923  0.58031375  1.0
  Ti  Ti810  1  0.63636364  0.30769231  0.58031375  1.0
  Ti  Ti811  1  0.63636364  0.38461538  0.58031375  1.0
  Ti  Ti812  1  0.63636364  0.46153846  0.58031375  1.0
  Ti  Ti813  1  0.63636364  0.53846154  0.58031375  1.0
  Ti  Ti814  1  0.63636364  0.61538462  0.58031375  1.0
  Ti  Ti815  1  0.63636364  0.69230769  0.58031375  1.0
  Ti  Ti816  1  0.63636364  0.76923077  0.58031375  1.0
  Ti  Ti817  1  0.63636364  0.84615385  0.58031375  1.0
  Ti  Ti818  1  0.63636364  0.92307692  0.58031375  1.0
  Ti  Ti819  1  0.72727273  0.00000000  0.58031375  1.0
  Ti  Ti820  1  0.72727273  0.07692308  0.58031375  1.0
  Ti  Ti821  1  0.72727273  0.15384615  0.58031375  1.0
  Ti  Ti822  1  0.72727273  0.23076923  0.58031375  1.0
  Ti  Ti823  1  0.72727273  0.30769231  0.58031375  1.0
  Ti  Ti824  1  0.72727273  0.38461538  0.58031375  1.0
  Ti  Ti825  1  0.72727273  0.46153846  0.58031375  1.0
  Ti  Ti826  1  0.72727273  0.53846154  0.58031375  1.0
  Ti  Ti827  1  0.72727273  0.61538462  0.58031375  1.0
  Ti  Ti828  1  0.72727273  0.69230769  0.58031375  1.0
  Ti  Ti829  1  0.72727273  0.76923077  0.58031375  1.0
  Ti  Ti830  1  0.72727273  0.84615385  0.58031375  1.0
  Ti  Ti831  1  0.72727273  0.92307692  0.58031375  1.0
  Ti  Ti832  1  0.81818182  0.00000000  0.58031375  1.0
  Ti  Ti833  1  0.81818182  0.07692308  0.58031375  1.0
  Ti  Ti834  1  0.81818182  0.15384615  0.58031375  1.0
  Ti  Ti835  1  0.81818182  0.23076923  0.58031375  1.0
  Ti  Ti836  1  0.81818182  0.30769231  0.58031375  1.0
  Ti  Ti837  1  0.81818182  0.38461538  0.58031375  1.0
  Ti  Ti838  1  0.81818182  0.46153846  0.58031375  1.0
  Ti  Ti839  1  0.81818182  0.53846154  0.58031375  1.0
  Ti  Ti840  1  0.81818182  0.61538462  0.58031375  1.0
  Ti  Ti841  1  0.81818182  0.69230769  0.58031375  1.0
  Ti  Ti842  1  0.81818182  0.76923077  0.58031375  1.0
  Ti  Ti843  1  0.81818182  0.84615385  0.58031375  1.0
  Ti  Ti844  1  0.81818182  0.92307692  0.58031375  1.0
  Ti  Ti845  1  0.90909091  0.00000000  0.58031375  1.0
  Ti  Ti846  1  0.90909091  0.07692308  0.58031375  1.0
  Ti  Ti847  1  0.90909091  0.15384615  0.58031375  1.0
  Ti  Ti848  1  0.90909091  0.23076923  0.58031375  1.0
  Ti  Ti849  1  0.90909091  0.30769231  0.58031375  1.0
  Ti  Ti850  1  0.90909091  0.38461538  0.58031375  1.0
  Ti  Ti851  1  0.90909091  0.46153846  0.58031375  1.0
  Ti  Ti852  1  0.90909091  0.53846154  0.58031375  1.0
  Ti  Ti853  1  0.90909091  0.61538462  0.58031375  1.0
  Ti  Ti854  1  0.90909091  0.69230769  0.58031375  1.0
  Ti  Ti855  1  0.90909091  0.76923077  0.58031375  1.0
  Ti  Ti856  1  0.90909091  0.84615385  0.58031375  1.0
  Ti  Ti857  1  0.90909091  0.92307692  0.58031375  1.0
  Ti  Ti858  1  0.03030303  0.02564103  0.44698042  1.0
  Ti  Ti859  1  0.03030303  0.10256410  0.44698042  1.0
  Ti  Ti860  1  0.03030303  0.17948718  0.44698042  1.0
  Ti  Ti861  1  0.03030303  0.25641026  0.44698042  1.0
  Ti  Ti862  1  0.03030303  0.33333333  0.44698042  1.0
  Ti  Ti863  1  0.03030303  0.41025641  0.44698042  1.0
  Ti  Ti864  1  0.03030303  0.48717949  0.44698042  1.0
  Ti  Ti865  1  0.03030303  0.56410256  0.44698042  1.0
  Ti  Ti866  1  0.03030303  0.64102564  0.44698042  1.0
  Ti  Ti867  1  0.03030303  0.71794872  0.44698042  1.0
  Ti  Ti868  1  0.03030303  0.79487179  0.44698042  1.0
  Ti  Ti869  1  0.03030303  0.87179487  0.44698042  1.0
  Ti  Ti870  1  0.03030303  0.94871795  0.44698042  1.0
  Ti  Ti871  1  0.12121212  0.02564103  0.44698042  1.0
  Ti  Ti872  1  0.12121212  0.10256410  0.44698042  1.0
  Ti  Ti873  1  0.12121212  0.17948718  0.44698042  1.0
  Ti  Ti874  1  0.12121212  0.25641026  0.44698042  1.0
  Ti  Ti875  1  0.12121212  0.33333333  0.44698042  1.0
  Ti  Ti876  1  0.12121212  0.41025641  0.44698042  1.0
  Ti  Ti877  1  0.12121212  0.48717949  0.44698042  1.0
  Ti  Ti878  1  0.12121212  0.56410256  0.44698042  1.0
  Ti  Ti879  1  0.12121212  0.64102564  0.44698042  1.0
  Ti  Ti880  1  0.12121212  0.71794872  0.44698042  1.0
  Ti  Ti881  1  0.12121212  0.79487179  0.44698042  1.0
  Ti  Ti882  1  0.12121212  0.87179487  0.44698042  1.0
  Ti  Ti883  1  0.12121212  0.94871795  0.44698042  1.0
  Ti  Ti884  1  0.21212121  0.02564103  0.44698042  1.0
  Ti  Ti885  1  0.21212121  0.10256410  0.44698042  1.0
  Ti  Ti886  1  0.21212121  0.17948718  0.44698042  1.0
  Ti  Ti887  1  0.21212121  0.25641026  0.44698042  1.0
  Ti  Ti888  1  0.21212121  0.33333333  0.44698042  1.0
  Ti  Ti889  1  0.21212121  0.41025641  0.44698042  1.0
  Ti  Ti890  1  0.21212121  0.48717949  0.44698042  1.0
  Ti  Ti891  1  0.21212121  0.56410256  0.44698042  1.0
  Ti  Ti892  1  0.21212121  0.64102564  0.44698042  1.0
  Ti  Ti893  1  0.21212121  0.71794872  0.44698042  1.0
  Ti  Ti894  1  0.21212121  0.79487179  0.44698042  1.0
  Ti  Ti895  1  0.21212121  0.87179487  0.44698042  1.0
  Ti  Ti896  1  0.21212121  0.94871795  0.44698042  1.0
  Ti  Ti897  1  0.30303030  0.02564103  0.44698042  1.0
  Ti  Ti898  1  0.30303030  0.10256410  0.44698042  1.0
  Ti  Ti899  1  0.30303030  0.17948718  0.44698042  1.0
  Ti  Ti900  1  0.30303030  0.25641026  0.44698042  1.0
  Ti  Ti901  1  0.30303030  0.33333333  0.44698042  1.0
  Ti  Ti902  1  0.30303030  0.41025641  0.44698042  1.0
  Ti  Ti903  1  0.30303030  0.48717949  0.44698042  1.0
  Ti  Ti904  1  0.30303030  0.56410256  0.44698042  1.0
  Ti  Ti905  1  0.30303030  0.64102564  0.44698042  1.0
  Ti  Ti906  1  0.30303030  0.71794872  0.44698042  1.0
  Ti  Ti907  1  0.30303030  0.79487179  0.44698042  1.0
  Ti  Ti908  1  0.30303030  0.87179487  0.44698042  1.0
  Ti  Ti909  1  0.30303030  0.94871795  0.44698042  1.0
  Ti  Ti910  1  0.39393939  0.02564103  0.44698042  1.0
  Ti  Ti911  1  0.39393939  0.10256410  0.44698042  1.0
  Ti  Ti912  1  0.39393939  0.17948718  0.44698042  1.0
  Ti  Ti913  1  0.39393939  0.25641026  0.44698042  1.0
  Ti  Ti914  1  0.39393939  0.33333333  0.44698042  1.0
  Ti  Ti915  1  0.39393939  0.41025641  0.44698042  1.0
  Ti  Ti916  1  0.39393939  0.48717949  0.44698042  1.0
  Ti  Ti917  1  0.39393939  0.56410256  0.44698042  1.0
  Ti  Ti918  1  0.39393939  0.64102564  0.44698042  1.0
  Ti  Ti919  1  0.39393939  0.71794872  0.44698042  1.0
  Ti  Ti920  1  0.39393939  0.79487179  0.44698042  1.0
  Ti  Ti921  1  0.39393939  0.87179487  0.44698042  1.0
  Ti  Ti922  1  0.39393939  0.94871795  0.44698042  1.0
  Ti  Ti923  1  0.48484848  0.02564103  0.44698042  1.0
  Ti  Ti924  1  0.48484848  0.10256410  0.44698042  1.0
  Ti  Ti925  1  0.48484848  0.17948718  0.44698042  1.0
  Ti  Ti926  1  0.48484848  0.25641026  0.44698042  1.0
  Ti  Ti927  1  0.48484848  0.33333333  0.44698042  1.0
  Ti  Ti928  1  0.48484848  0.41025641  0.44698042  1.0
  Ti  Ti929  1  0.48484848  0.48717949  0.44698042  1.0
  Ti  Ti930  1  0.48484848  0.56410256  0.44698042  1.0
  Ti  Ti931  1  0.48484848  0.64102564  0.44698042  1.0
  Ti  Ti932  1  0.48484848  0.71794872  0.44698042  1.0
  Ti  Ti933  1  0.48484848  0.79487179  0.44698042  1.0
  Ti  Ti934  1  0.48484848  0.87179487  0.44698042  1.0
  Ti  Ti935  1  0.48484848  0.94871795  0.44698042  1.0
  Ti  Ti936  1  0.57575758  0.02564103  0.44698042  1.0
  Ti  Ti937  1  0.57575758  0.10256410  0.44698042  1.0
  Ti  Ti938  1  0.57575758  0.17948718  0.44698042  1.0
  Ti  Ti939  1  0.57575758  0.25641026  0.44698042  1.0
  Ti  Ti940  1  0.57575758  0.33333333  0.44698042  1.0
  Ti  Ti941  1  0.57575758  0.41025641  0.44698042  1.0
  Ti  Ti942  1  0.57575758  0.48717949  0.44698042  1.0
  Ti  Ti943  1  0.57575758  0.56410256  0.44698042  1.0
  Ti  Ti944  1  0.57575758  0.64102564  0.44698042  1.0
  Ti  Ti945  1  0.57575758  0.71794872  0.44698042  1.0
  Ti  Ti946  1  0.57575758  0.79487179  0.44698042  1.0
  Ti  Ti947  1  0.57575758  0.87179487  0.44698042  1.0
  Ti  Ti948  1  0.57575758  0.94871795  0.44698042  1.0
  Ti  Ti949  1  0.66666667  0.02564103  0.44698042  1.0
  Ti  Ti950  1  0.66666667  0.10256410  0.44698042  1.0
  Ti  Ti951  1  0.66666667  0.17948718  0.44698042  1.0
  Ti  Ti952  1  0.66666667  0.25641026  0.44698042  1.0
  Ti  Ti953  1  0.66666667  0.33333333  0.44698042  1.0
  Ti  Ti954  1  0.66666667  0.41025641  0.44698042  1.0
  Ti  Ti955  1  0.66666667  0.48717949  0.44698042  1.0
  Ti  Ti956  1  0.66666667  0.56410256  0.44698042  1.0
  Ti  Ti957  1  0.66666667  0.64102564  0.44698042  1.0
  Ti  Ti958  1  0.66666667  0.71794872  0.44698042  1.0
  Ti  Ti959  1  0.66666667  0.79487179  0.44698042  1.0
  Ti  Ti960  1  0.66666667  0.87179487  0.44698042  1.0
  Ti  Ti961  1  0.66666667  0.94871795  0.44698042  1.0
  Ti  Ti962  1  0.75757576  0.02564103  0.44698042  1.0
  Ti  Ti963  1  0.75757576  0.10256410  0.44698042  1.0
  Ti  Ti964  1  0.75757576  0.17948718  0.44698042  1.0
  Ti  Ti965  1  0.75757576  0.25641026  0.44698042  1.0
  Ti  Ti966  1  0.75757576  0.33333333  0.44698042  1.0
  Ti  Ti967  1  0.75757576  0.41025641  0.44698042  1.0
  Ti  Ti968  1  0.75757576  0.48717949  0.44698042  1.0
  Ti  Ti969  1  0.75757576  0.56410256  0.44698042  1.0
  Ti  Ti970  1  0.75757576  0.64102564  0.44698042  1.0
  Ti  Ti971  1  0.75757576  0.71794872  0.44698042  1.0
  Ti  Ti972  1  0.75757576  0.79487179  0.44698042  1.0
  Ti  Ti973  1  0.75757576  0.87179487  0.44698042  1.0
  Ti  Ti974  1  0.75757576  0.94871795  0.44698042  1.0
  Ti  Ti975  1  0.84848485  0.02564103  0.44698042  1.0
  Ti  Ti976  1  0.84848485  0.10256410  0.44698042  1.0
  Ti  Ti977  1  0.84848485  0.17948718  0.44698042  1.0
  Ti  Ti978  1  0.84848485  0.25641026  0.44698042  1.0
  Ti  Ti979  1  0.84848485  0.33333333  0.44698042  1.0
  Ti  Ti980  1  0.84848485  0.41025641  0.44698042  1.0
  Ti  Ti981  1  0.84848485  0.48717949  0.44698042  1.0
  Ti  Ti982  1  0.84848485  0.56410256  0.44698042  1.0
  Ti  Ti983  1  0.84848485  0.64102564  0.44698042  1.0
  Ti  Ti984  1  0.84848485  0.71794872  0.44698042  1.0
  Ti  Ti985  1  0.84848485  0.79487179  0.44698042  1.0
  Ti  Ti986  1  0.84848485  0.87179487  0.44698042  1.0
  Ti  Ti987  1  0.84848485  0.94871795  0.44698042  1.0
  Ti  Ti988  1  0.93939394  0.02564103  0.44698042  1.0
  Ti  Ti989  1  0.93939394  0.10256410  0.44698042  1.0
  Ti  Ti990  1  0.93939394  0.17948718  0.44698042  1.0
  Ti  Ti991  1  0.93939394  0.25641026  0.44698042  1.0
  Ti  Ti992  1  0.93939394  0.33333333  0.44698042  1.0
  Ti  Ti993  1  0.93939394  0.41025641  0.44698042  1.0
  Ti  Ti994  1  0.93939394  0.48717949  0.44698042  1.0
  Ti  Ti995  1  0.93939394  0.56410256  0.44698042  1.0
  Ti  Ti996  1  0.93939394  0.64102564  0.44698042  1.0
  Ti  Ti997  1  0.93939394  0.71794872  0.44698042  1.0
  Ti  Ti998  1  0.93939394  0.79487179  0.44698042  1.0
  Ti  Ti999  1  0.93939394  0.87179487  0.44698042  1.0
  Ti  Ti1000  1  0.93939394  0.94871795  0.44698042  1.0
  Ti  Ti1001  1  0.06060606  0.05128205  0.51364708  1.0
  Ti  Ti1002  1  0.06060606  0.12820513  0.51364708  1.0
  Ti  Ti1003  1  0.06060606  0.20512821  0.51364708  1.0
  Ti  Ti1004  1  0.06060606  0.28205128  0.51364708  1.0
  Ti  Ti1005  1  0.06060606  0.35897436  0.51364708  1.0
  Ti  Ti1006  1  0.06060606  0.43589744  0.51364708  1.0
  Ti  Ti1007  1  0.06060606  0.51282051  0.51364708  1.0
  Ti  Ti1008  1  0.06060606  0.58974359  0.51364708  1.0
  Ti  Ti1009  1  0.06060606  0.66666667  0.51364708  1.0
  Ti  Ti1010  1  0.06060606  0.74358974  0.51364708  1.0
  Ti  Ti1011  1  0.06060606  0.82051282  0.51364708  1.0
  Ti  Ti1012  1  0.06060606  0.89743590  0.51364708  1.0
  Ti  Ti1013  1  0.06060606  0.97435897  0.51364708  1.0
  Ti  Ti1014  1  0.15151515  0.05128205  0.51364708  1.0
  Ti  Ti1015  1  0.15151515  0.12820513  0.51364708  1.0
  Ti  Ti1016  1  0.15151515  0.20512821  0.51364708  1.0
  Ti  Ti1017  1  0.15151515  0.28205128  0.51364708  1.0
  Ti  Ti1018  1  0.15151515  0.35897436  0.51364708  1.0
  Ti  Ti1019  1  0.15151515  0.43589744  0.51364708  1.0
  Ti  Ti1020  1  0.15151515  0.51282051  0.51364708  1.0
  Ti  Ti1021  1  0.15151515  0.58974359  0.51364708  1.0
  Ti  Ti1022  1  0.15151515  0.66666667  0.51364708  1.0
  Ti  Ti1023  1  0.15151515  0.74358974  0.51364708  1.0
  Ti  Ti1024  1  0.15151515  0.82051282  0.51364708  1.0
  Ti  Ti1025  1  0.15151515  0.89743590  0.51364708  1.0
  Ti  Ti1026  1  0.15151515  0.97435897  0.51364708  1.0
  Ti  Ti1027  1  0.24242424  0.05128205  0.51364708  1.0
  Ti  Ti1028  1  0.24242424  0.12820513  0.51364708  1.0
  Ti  Ti1029  1  0.24242424  0.20512821  0.51364708  1.0
  Ti  Ti1030  1  0.24242424  0.28205128  0.51364708  1.0
  Ti  Ti1031  1  0.24242424  0.35897436  0.51364708  1.0
  Ti  Ti1032  1  0.24242424  0.43589744  0.51364708  1.0
  Ti  Ti1033  1  0.24242424  0.51282051  0.51364708  1.0
  Ti  Ti1034  1  0.24242424  0.58974359  0.51364708  1.0
  Ti  Ti1035  1  0.24242424  0.66666667  0.51364708  1.0
  Ti  Ti1036  1  0.24242424  0.74358974  0.51364708  1.0
  Ti  Ti1037  1  0.24242424  0.82051282  0.51364708  1.0
  Ti  Ti1038  1  0.24242424  0.89743590  0.51364708  1.0
  Ti  Ti1039  1  0.24242424  0.97435897  0.51364708  1.0
  Ti  Ti1040  1  0.33333333  0.05128205  0.51364708  1.0
  Ti  Ti1041  1  0.33333333  0.12820513  0.51364708  1.0
  Ti  Ti1042  1  0.33333333  0.20512821  0.51364708  1.0
  Ti  Ti1043  1  0.33333333  0.28205128  0.51364708  1.0
  Ti  Ti1044  1  0.33333333  0.35897436  0.51364708  1.0
  Ti  Ti1045  1  0.33333333  0.43589744  0.51364708  1.0
  Ti  Ti1046  1  0.33333333  0.51282051  0.51364708  1.0
  Ti  Ti1047  1  0.33333333  0.58974359  0.51364708  1.0
  Ti  Ti1048  1  0.33333333  0.66666667  0.51364708  1.0
  Ti  Ti1049  1  0.33333333  0.74358974  0.51364708  1.0
  Ti  Ti1050  1  0.33333333  0.82051282  0.51364708  1.0
  Ti  Ti1051  1  0.33333333  0.89743590  0.51364708  1.0
  Ti  Ti1052  1  0.33333333  0.97435897  0.51364708  1.0
  Ti  Ti1053  1  0.42424242  0.05128205  0.51364708  1.0
  Ti  Ti1054  1  0.42424242  0.12820513  0.51364708  1.0
  Ti  Ti1055  1  0.42424242  0.20512821  0.51364708  1.0
  Ti  Ti1056  1  0.42424242  0.28205128  0.51364708  1.0
  Ti  Ti1057  1  0.42424242  0.35897436  0.51364708  1.0
  Ti  Ti1058  1  0.42424242  0.43589744  0.51364708  1.0
  Ti  Ti1059  1  0.42424242  0.51282051  0.51364708  1.0
  Ti  Ti1060  1  0.42424242  0.58974359  0.51364708  1.0
  Ti  Ti1061  1  0.42424242  0.66666667  0.51364708  1.0
  Ti  Ti1062  1  0.42424242  0.74358974  0.51364708  1.0
  Ti  Ti1063  1  0.42424242  0.82051282  0.51364708  1.0
  Ti  Ti1064  1  0.42424242  0.89743590  0.51364708  1.0
  Ti  Ti1065  1  0.42424242  0.97435897  0.51364708  1.0
  Ti  Ti1066  1  0.51515152  0.05128205  0.51364708  1.0
  Ti  Ti1067  1  0.51515152  0.12820513  0.51364708  1.0
  Ti  Ti1068  1  0.51515152  0.20512821  0.51364708  1.0
  Ti  Ti1069  1  0.51515152  0.28205128  0.51364708  1.0
  Ti  Ti1070  1  0.51515152  0.35897436  0.51364708  1.0
  Ti  Ti1071  1  0.51515152  0.43589744  0.51364708  1.0
  Ti  Ti1072  1  0.51515152  0.51282051  0.51364708  1.0
  Ti  Ti1073  1  0.51515152  0.58974359  0.51364708  1.0
  Ti  Ti1074  1  0.51515152  0.66666667  0.51364708  1.0
  Ti  Ti1075  1  0.51515152  0.74358974  0.51364708  1.0
  Ti  Ti1076  1  0.51515152  0.82051282  0.51364708  1.0
  Ti  Ti1077  1  0.51515152  0.89743590  0.51364708  1.0
  Ti  Ti1078  1  0.51515152  0.97435897  0.51364708  1.0
  Ti  Ti1079  1  0.60606061  0.05128205  0.51364708  1.0
  Ti  Ti1080  1  0.60606061  0.12820513  0.51364708  1.0
  Ti  Ti1081  1  0.60606061  0.20512821  0.51364708  1.0
  Ti  Ti1082  1  0.60606061  0.28205128  0.51364708  1.0
  Ti  Ti1083  1  0.60606061  0.35897436  0.51364708  1.0
  Ti  Ti1084  1  0.60606061  0.43589744  0.51364708  1.0
  Ti  Ti1085  1  0.60606061  0.51282051  0.51364708  1.0
  Ti  Ti1086  1  0.60606061  0.58974359  0.51364708  1.0
  Ti  Ti1087  1  0.60606061  0.66666667  0.51364708  1.0
  Ti  Ti1088  1  0.60606061  0.74358974  0.51364708  1.0
  Ti  Ti1089  1  0.60606061  0.82051282  0.51364708  1.0
  Ti  Ti1090  1  0.60606061  0.89743590  0.51364708  1.0
  Ti  Ti1091  1  0.60606061  0.97435897  0.51364708  1.0
  Ti  Ti1092  1  0.69696970  0.05128205  0.51364708  1.0
  Ti  Ti1093  1  0.69696970  0.12820513  0.51364708  1.0
  Ti  Ti1094  1  0.69696970  0.20512821  0.51364708  1.0
  Ti  Ti1095  1  0.69696970  0.28205128  0.51364708  1.0
  Ti  Ti1096  1  0.69696970  0.35897436  0.51364708  1.0
  Ti  Ti1097  1  0.69696970  0.43589744  0.51364708  1.0
  Ti  Ti1098  1  0.69696970  0.51282051  0.51364708  1.0
  Ti  Ti1099  1  0.69696970  0.58974359  0.51364708  1.0
  Ti  Ti1100  1  0.69696970  0.66666667  0.51364708  1.0
  Ti  Ti1101  1  0.69696970  0.74358974  0.51364708  1.0
  Ti  Ti1102  1  0.69696970  0.82051282  0.51364708  1.0
  Ti  Ti1103  1  0.69696970  0.89743590  0.51364708  1.0
  Ti  Ti1104  1  0.69696970  0.97435897  0.51364708  1.0
  Ti  Ti1105  1  0.78787879  0.05128205  0.51364708  1.0
  Ti  Ti1106  1  0.78787879  0.12820513  0.51364708  1.0
  Ti  Ti1107  1  0.78787879  0.20512821  0.51364708  1.0
  Ti  Ti1108  1  0.78787879  0.28205128  0.51364708  1.0
  Ti  Ti1109  1  0.78787879  0.35897436  0.51364708  1.0
  Ti  Ti1110  1  0.78787879  0.43589744  0.51364708  1.0
  Ti  Ti1111  1  0.78787879  0.51282051  0.51364708  1.0
  Ti  Ti1112  1  0.78787879  0.58974359  0.51364708  1.0
  Ti  Ti1113  1  0.78787879  0.66666667  0.51364708  1.0
  Ti  Ti1114  1  0.78787879  0.74358974  0.51364708  1.0
  Ti  Ti1115  1  0.78787879  0.82051282  0.51364708  1.0
  Ti  Ti1116  1  0.78787879  0.89743590  0.51364708  1.0
  Ti  Ti1117  1  0.78787879  0.97435897  0.51364708  1.0
  Ti  Ti1118  1  0.87878788  0.05128205  0.51364708  1.0
  Ti  Ti1119  1  0.87878788  0.12820513  0.51364708  1.0
  Ti  Ti1120  1  0.87878788  0.20512821  0.51364708  1.0
  Ti  Ti1121  1  0.87878788  0.28205128  0.51364708  1.0
  Ti  Ti1122  1  0.87878788  0.35897436  0.51364708  1.0
  Ti  Ti1123  1  0.87878788  0.43589744  0.51364708  1.0
  Ti  Ti1124  1  0.87878788  0.51282051  0.51364708  1.0
  Ti  Ti1125  1  0.87878788  0.58974359  0.51364708  1.0
  Ti  Ti1126  1  0.87878788  0.66666667  0.51364708  1.0
  Ti  Ti1127  1  0.87878788  0.74358974  0.51364708  1.0
  Ti  Ti1128  1  0.87878788  0.82051282  0.51364708  1.0
  Ti  Ti1129  1  0.87878788  0.89743590  0.51364708  1.0
  Ti  Ti1130  1  0.87878788  0.97435897  0.51364708  1.0
  Ti  Ti1131  1  0.96969697  0.05128205  0.51364708  1.0
  Ti  Ti1132  1  0.96969697  0.12820513  0.51364708  1.0
  Ti  Ti1133  1  0.96969697  0.20512821  0.51364708  1.0
  Ti  Ti1134  1  0.96969697  0.28205128  0.51364708  1.0
  Ti  Ti1135  1  0.96969697  0.35897436  0.51364708  1.0
  Ti  Ti1136  1  0.96969697  0.43589744  0.51364708  1.0
  Ti  Ti1137  1  0.96969697  0.51282051  0.51364708  1.0
  Ti  Ti1138  1  0.96969697  0.58974359  0.51364708  1.0
  Ti  Ti1139  1  0.96969697  0.66666667  0.51364708  1.0
  Ti  Ti1140  1  0.96969697  0.74358974  0.51364708  1.0
  Ti  Ti1141  1  0.96969697  0.82051282  0.51364708  1.0
  Ti  Ti1142  1  0.96969697  0.89743590  0.51364708  1.0
  Ti  Ti1143  1  0.96969697  0.97435897  0.51364708  1.0
  Ti  Ti1144  1  0.00000000  0.00000000  0.48031375  1.0
  Ti  Ti1145  1  0.00000000  0.07692308  0.48031375  1.0
  Ti  Ti1146  1  0.00000000  0.15384615  0.48031375  1.0
  Ti  Ti1147  1  0.00000000  0.23076923  0.48031375  1.0
  Ti  Ti1148  1  0.00000000  0.30769231  0.48031375  1.0
  Ti  Ti1149  1  0.00000000  0.38461538  0.48031375  1.0
  Ti  Ti1150  1  0.00000000  0.46153846  0.48031375  1.0
  Ti  Ti1151  1  0.00000000  0.53846154  0.48031375  1.0
  Ti  Ti1152  1  0.00000000  0.61538462  0.48031375  1.0
  Ti  Ti1153  1  0.00000000  0.69230769  0.48031375  1.0
  Ti  Ti1154  1  0.00000000  0.76923077  0.48031375  1.0
  Ti  Ti1155  1  0.00000000  0.84615385  0.48031375  1.0
  Ti  Ti1156  1  0.00000000  0.92307692  0.48031375  1.0
  Ti  Ti1157  1  0.09090909  0.00000000  0.48031375  1.0
  Ti  Ti1158  1  0.09090909  0.07692308  0.48031375  1.0
  Ti  Ti1159  1  0.09090909  0.15384615  0.48031375  1.0
  Ti  Ti1160  1  0.09090909  0.23076923  0.48031375  1.0
  Ti  Ti1161  1  0.09090909  0.30769231  0.48031375  1.0
  Ti  Ti1162  1  0.09090909  0.38461538  0.48031375  1.0
  Ti  Ti1163  1  0.09090909  0.46153846  0.48031375  1.0
  Ti  Ti1164  1  0.09090909  0.53846154  0.48031375  1.0
  Ti  Ti1165  1  0.09090909  0.61538462  0.48031375  1.0
  Ti  Ti1166  1  0.09090909  0.69230769  0.48031375  1.0
  Ti  Ti1167  1  0.09090909  0.76923077  0.48031375  1.0
  Ti  Ti1168  1  0.09090909  0.84615385  0.48031375  1.0
  Ti  Ti1169  1  0.09090909  0.92307692  0.48031375  1.0
  Ti  Ti1170  1  0.18181818  0.00000000  0.48031375  1.0
  Ti  Ti1171  1  0.18181818  0.07692308  0.48031375  1.0
  Ti  Ti1172  1  0.18181818  0.15384615  0.48031375  1.0
  Ti  Ti1173  1  0.18181818  0.23076923  0.48031375  1.0
  Ti  Ti1174  1  0.18181818  0.30769231  0.48031375  1.0
  Ti  Ti1175  1  0.18181818  0.38461538  0.48031375  1.0
  Ti  Ti1176  1  0.18181818  0.46153846  0.48031375  1.0
  Ti  Ti1177  1  0.18181818  0.53846154  0.48031375  1.0
  Ti  Ti1178  1  0.18181818  0.61538462  0.48031375  1.0
  Ti  Ti1179  1  0.18181818  0.69230769  0.48031375  1.0
  Ti  Ti1180  1  0.18181818  0.76923077  0.48031375  1.0
  Ti  Ti1181  1  0.18181818  0.84615385  0.48031375  1.0
  Ti  Ti1182  1  0.18181818  0.92307692  0.48031375  1.0
  Ti  Ti1183  1  0.27272727  0.00000000  0.48031375  1.0
  Ti  Ti1184  1  0.27272727  0.07692308  0.48031375  1.0
  Ti  Ti1185  1  0.27272727  0.15384615  0.48031375  1.0
  Ti  Ti1186  1  0.27272727  0.23076923  0.48031375  1.0
  Ti  Ti1187  1  0.27272727  0.30769231  0.48031375  1.0
  Ti  Ti1188  1  0.27272727  0.38461538  0.48031375  1.0
  Ti  Ti1189  1  0.27272727  0.46153846  0.48031375  1.0
  Ti  Ti1190  1  0.27272727  0.53846154  0.48031375  1.0
  Ti  Ti1191  1  0.27272727  0.61538462  0.48031375  1.0
  Ti  Ti1192  1  0.27272727  0.69230769  0.48031375  1.0
  Ti  Ti1193  1  0.27272727  0.76923077  0.48031375  1.0
  Ti  Ti1194  1  0.27272727  0.84615385  0.48031375  1.0
  Ti  Ti1195  1  0.27272727  0.92307692  0.48031375  1.0
  Ti  Ti1196  1  0.36363636  0.00000000  0.48031375  1.0
  Ti  Ti1197  1  0.36363636  0.07692308  0.48031375  1.0
  Ti  Ti1198  1  0.36363636  0.15384615  0.48031375  1.0
  Ti  Ti1199  1  0.36363636  0.23076923  0.48031375  1.0
  Ti  Ti1200  1  0.36363636  0.30769231  0.48031375  1.0
  Ti  Ti1201  1  0.36363636  0.38461538  0.48031375  1.0
  Ti  Ti1202  1  0.36363636  0.46153846  0.48031375  1.0
  Ti  Ti1203  1  0.36363636  0.53846154  0.48031375  1.0
  Ti  Ti1204  1  0.36363636  0.61538462  0.48031375  1.0
  Ti  Ti1205  1  0.36363636  0.69230769  0.48031375  1.0
  Ti  Ti1206  1  0.36363636  0.76923077  0.48031375  1.0
  Ti  Ti1207  1  0.36363636  0.84615385  0.48031375  1.0
  Ti  Ti1208  1  0.36363636  0.92307692  0.48031375  1.0
  Ti  Ti1209  1  0.45454545  0.00000000  0.48031375  1.0
  Ti  Ti1210  1  0.45454545  0.07692308  0.48031375  1.0
  Ti  Ti1211  1  0.45454545  0.15384615  0.48031375  1.0
  Ti  Ti1212  1  0.45454545  0.23076923  0.48031375  1.0
  Ti  Ti1213  1  0.45454545  0.30769231  0.48031375  1.0
  Ti  Ti1214  1  0.45454545  0.38461538  0.48031375  1.0
  Ti  Ti1215  1  0.45454545  0.46153846  0.48031375  1.0
  Ti  Ti1216  1  0.45454545  0.53846154  0.48031375  1.0
  Ti  Ti1217  1  0.45454545  0.61538462  0.48031375  1.0
  Ti  Ti1218  1  0.45454545  0.69230769  0.48031375  1.0
  Ti  Ti1219  1  0.45454545  0.76923077  0.48031375  1.0
  Ti  Ti1220  1  0.45454545  0.84615385  0.48031375  1.0
  Ti  Ti1221  1  0.45454545  0.92307692  0.48031375  1.0
  Ti  Ti1222  1  0.54545455  0.00000000  0.48031375  1.0
  Ti  Ti1223  1  0.54545455  0.07692308  0.48031375  1.0
  Ti  Ti1224  1  0.54545455  0.15384615  0.48031375  1.0
  Ti  Ti1225  1  0.54545455  0.23076923  0.48031375  1.0
  Ti  Ti1226  1  0.54545455  0.30769231  0.48031375  1.0
  Ti  Ti1227  1  0.54545455  0.38461538  0.48031375  1.0
  Ti  Ti1228  1  0.54545455  0.46153846  0.48031375  1.0
  Ti  Ti1229  1  0.54545455  0.53846154  0.48031375  1.0
  Ti  Ti1230  1  0.54545455  0.61538462  0.48031375  1.0
  Ti  Ti1231  1  0.54545455  0.69230769  0.48031375  1.0
  Ti  Ti1232  1  0.54545455  0.76923077  0.48031375  1.0
  Ti  Ti1233  1  0.54545455  0.84615385  0.48031375  1.0
  Ti  Ti1234  1  0.54545455  0.92307692  0.48031375  1.0
  Ti  Ti1235  1  0.63636364  0.00000000  0.48031375  1.0
  Ti  Ti1236  1  0.63636364  0.07692308  0.48031375  1.0
  Ti  Ti1237  1  0.63636364  0.15384615  0.48031375  1.0
  Ti  Ti1238  1  0.63636364  0.23076923  0.48031375  1.0
  Ti  Ti1239  1  0.63636364  0.30769231  0.48031375  1.0
  Ti  Ti1240  1  0.63636364  0.38461538  0.48031375  1.0
  Ti  Ti1241  1  0.63636364  0.46153846  0.48031375  1.0
  Ti  Ti1242  1  0.63636364  0.53846154  0.48031375  1.0
  Ti  Ti1243  1  0.63636364  0.61538462  0.48031375  1.0
  Ti  Ti1244  1  0.63636364  0.69230769  0.48031375  1.0
  Ti  Ti1245  1  0.63636364  0.76923077  0.48031375  1.0
  Ti  Ti1246  1  0.63636364  0.84615385  0.48031375  1.0
  Ti  Ti1247  1  0.63636364  0.92307692  0.48031375  1.0
  Ti  Ti1248  1  0.72727273  0.00000000  0.48031375  1.0
  Ti  Ti1249  1  0.72727273  0.07692308  0.48031375  1.0
  Ti  Ti1250  1  0.72727273  0.15384615  0.48031375  1.0
  Ti  Ti1251  1  0.72727273  0.23076923  0.48031375  1.0
  Ti  Ti1252  1  0.72727273  0.30769231  0.48031375  1.0
  Ti  Ti1253  1  0.72727273  0.38461538  0.48031375  1.0
  Ti  Ti1254  1  0.72727273  0.46153846  0.48031375  1.0
  Ti  Ti1255  1  0.72727273  0.53846154  0.48031375  1.0
  Ti  Ti1256  1  0.72727273  0.61538462  0.48031375  1.0
  Ti  Ti1257  1  0.72727273  0.69230769  0.48031375  1.0
  Ti  Ti1258  1  0.72727273  0.76923077  0.48031375  1.0
  Ti  Ti1259  1  0.72727273  0.84615385  0.48031375  1.0
  Ti  Ti1260  1  0.72727273  0.92307692  0.48031375  1.0
  Ti  Ti1261  1  0.81818182  0.00000000  0.48031375  1.0
  Ti  Ti1262  1  0.81818182  0.07692308  0.48031375  1.0
  Ti  Ti1263  1  0.81818182  0.15384615  0.48031375  1.0
  Ti  Ti1264  1  0.81818182  0.23076923  0.48031375  1.0
  Ti  Ti1265  1  0.81818182  0.30769231  0.48031375  1.0
  Ti  Ti1266  1  0.81818182  0.38461538  0.48031375  1.0
  Ti  Ti1267  1  0.81818182  0.46153846  0.48031375  1.0
  Ti  Ti1268  1  0.81818182  0.53846154  0.48031375  1.0
  Ti  Ti1269  1  0.81818182  0.61538462  0.48031375  1.0
  Ti  Ti1270  1  0.81818182  0.69230769  0.48031375  1.0
  Ti  Ti1271  1  0.81818182  0.76923077  0.48031375  1.0
  Ti  Ti1272  1  0.81818182  0.84615385  0.48031375  1.0
  Ti  Ti1273  1  0.81818182  0.92307692  0.48031375  1.0
  Ti  Ti1274  1  0.90909091  0.00000000  0.48031375  1.0
  Ti  Ti1275  1  0.90909091  0.07692308  0.48031375  1.0
  Ti  Ti1276  1  0.90909091  0.15384615  0.48031375  1.0
  Ti  Ti1277  1  0.90909091  0.23076923  0.48031375  1.0
  Ti  Ti1278  1  0.90909091  0.30769231  0.48031375  1.0
  Ti  Ti1279  1  0.90909091  0.38461538  0.48031375  1.0
  Ti  Ti1280  1  0.90909091  0.46153846  0.48031375  1.0
  Ti  Ti1281  1  0.90909091  0.53846154  0.48031375  1.0
  Ti  Ti1282  1  0.90909091  0.61538462  0.48031375  1.0
  Ti  Ti1283  1  0.90909091  0.69230769  0.48031375  1.0
  Ti  Ti1284  1  0.90909091  0.76923077  0.48031375  1.0
  Ti  Ti1285  1  0.90909091  0.84615385  0.48031375  1.0
  Ti  Ti1286  1  0.90909091  0.92307692  0.48031375  1.0
  Ti  Ti1287  1  0.03030303  0.02564103  0.54698042  1.0
  Ti  Ti1288  1  0.03030303  0.10256410  0.54698042  1.0
  Ti  Ti1289  1  0.03030303  0.17948718  0.54698042  1.0
  Ti  Ti1290  1  0.03030303  0.25641026  0.54698042  1.0
  Ti  Ti1291  1  0.03030303  0.33333333  0.54698042  1.0
  Ti  Ti1292  1  0.03030303  0.41025641  0.54698042  1.0
  Ti  Ti1293  1  0.03030303  0.48717949  0.54698042  1.0
  Ti  Ti1294  1  0.03030303  0.56410256  0.54698042  1.0
  Ti  Ti1295  1  0.03030303  0.64102564  0.54698042  1.0
  Ti  Ti1296  1  0.03030303  0.71794872  0.54698042  1.0
  Ti  Ti1297  1  0.03030303  0.79487179  0.54698042  1.0
  Ti  Ti1298  1  0.03030303  0.87179487  0.54698042  1.0
  Ti  Ti1299  1  0.03030303  0.94871795  0.54698042  1.0
  Ti  Ti1300  1  0.12121212  0.02564103  0.54698042  1.0
  Ti  Ti1301  1  0.12121212  0.10256410  0.54698042  1.0
  Ti  Ti1302  1  0.12121212  0.17948718  0.54698042  1.0
  Ti  Ti1303  1  0.12121212  0.25641026  0.54698042  1.0
  Ti  Ti1304  1  0.12121212  0.33333333  0.54698042  1.0
  Ti  Ti1305  1  0.12121212  0.41025641  0.54698042  1.0
  Ti  Ti1306  1  0.12121212  0.48717949  0.54698042  1.0
  Ti  Ti1307  1  0.12121212  0.56410256  0.54698042  1.0
  Ti  Ti1308  1  0.12121212  0.64102564  0.54698042  1.0
  Ti  Ti1309  1  0.12121212  0.71794872  0.54698042  1.0
  Ti  Ti1310  1  0.12121212  0.79487179  0.54698042  1.0
  Ti  Ti1311  1  0.12121212  0.87179487  0.54698042  1.0
  Ti  Ti1312  1  0.12121212  0.94871795  0.54698042  1.0
  Ti  Ti1313  1  0.21212121  0.02564103  0.54698042  1.0
  Ti  Ti1314  1  0.21212121  0.10256410  0.54698042  1.0
  Ti  Ti1315  1  0.21212121  0.17948718  0.54698042  1.0
  Ti  Ti1316  1  0.21212121  0.25641026  0.54698042  1.0
  Ti  Ti1317  1  0.21212121  0.33333333  0.54698042  1.0
  Ti  Ti1318  1  0.21212121  0.41025641  0.54698042  1.0
  Ti  Ti1319  1  0.21212121  0.48717949  0.54698042  1.0
  Ti  Ti1320  1  0.21212121  0.56410256  0.54698042  1.0
  Ti  Ti1321  1  0.21212121  0.64102564  0.54698042  1.0
  Ti  Ti1322  1  0.21212121  0.71794872  0.54698042  1.0
  Ti  Ti1323  1  0.21212121  0.79487179  0.54698042  1.0
  Ti  Ti1324  1  0.21212121  0.87179487  0.54698042  1.0
  Ti  Ti1325  1  0.21212121  0.94871795  0.54698042  1.0
  Ti  Ti1326  1  0.30303030  0.02564103  0.54698042  1.0
  Ti  Ti1327  1  0.30303030  0.10256410  0.54698042  1.0
  Ti  Ti1328  1  0.30303030  0.17948718  0.54698042  1.0
  Ti  Ti1329  1  0.30303030  0.25641026  0.54698042  1.0
  Ti  Ti1330  1  0.30303030  0.33333333  0.54698042  1.0
  Ti  Ti1331  1  0.30303030  0.41025641  0.54698042  1.0
  Ti  Ti1332  1  0.30303030  0.48717949  0.54698042  1.0
  Ti  Ti1333  1  0.30303030  0.56410256  0.54698042  1.0
  Ti  Ti1334  1  0.30303030  0.64102564  0.54698042  1.0
  Ti  Ti1335  1  0.30303030  0.71794872  0.54698042  1.0
  Ti  Ti1336  1  0.30303030  0.79487179  0.54698042  1.0
  Ti  Ti1337  1  0.30303030  0.87179487  0.54698042  1.0
  Ti  Ti1338  1  0.30303030  0.94871795  0.54698042  1.0
  Ti  Ti1339  1  0.39393939  0.02564103  0.54698042  1.0
  Ti  Ti1340  1  0.39393939  0.10256410  0.54698042  1.0
  Ti  Ti1341  1  0.39393939  0.17948718  0.54698042  1.0
  Ti  Ti1342  1  0.39393939  0.25641026  0.54698042  1.0
  Ti  Ti1343  1  0.39393939  0.33333333  0.54698042  1.0
  Ti  Ti1344  1  0.39393939  0.41025641  0.54698042  1.0
  Ti  Ti1345  1  0.39393939  0.48717949  0.54698042  1.0
  Ti  Ti1346  1  0.39393939  0.56410256  0.54698042  1.0
  Ti  Ti1347  1  0.39393939  0.64102564  0.54698042  1.0
  Ti  Ti1348  1  0.39393939  0.71794872  0.54698042  1.0
  Ti  Ti1349  1  0.39393939  0.79487179  0.54698042  1.0
  Ti  Ti1350  1  0.39393939  0.87179487  0.54698042  1.0
  Ti  Ti1351  1  0.39393939  0.94871795  0.54698042  1.0
  Ti  Ti1352  1  0.48484848  0.02564103  0.54698042  1.0
  Ti  Ti1353  1  0.48484848  0.10256410  0.54698042  1.0
  Ti  Ti1354  1  0.48484848  0.17948718  0.54698042  1.0
  Ti  Ti1355  1  0.48484848  0.25641026  0.54698042  1.0
  Ti  Ti1356  1  0.48484848  0.33333333  0.54698042  1.0
  Ti  Ti1357  1  0.48484848  0.41025641  0.54698042  1.0
  Ti  Ti1358  1  0.48484848  0.48717949  0.54698042  1.0
  Ti  Ti1359  1  0.48484848  0.56410256  0.54698042  1.0
  Ti  Ti1360  1  0.48484848  0.64102564  0.54698042  1.0
  Ti  Ti1361  1  0.48484848  0.71794872  0.54698042  1.0
  Ti  Ti1362  1  0.48484848  0.79487179  0.54698042  1.0
  Ti  Ti1363  1  0.48484848  0.87179487  0.54698042  1.0
  Ti  Ti1364  1  0.48484848  0.94871795  0.54698042  1.0
  Ti  Ti1365  1  0.57575758  0.02564103  0.54698042  1.0
  Ti  Ti1366  1  0.57575758  0.10256410  0.54698042  1.0
  Ti  Ti1367  1  0.57575758  0.17948718  0.54698042  1.0
  Ti  Ti1368  1  0.57575758  0.25641026  0.54698042  1.0
  Ti  Ti1369  1  0.57575758  0.33333333  0.54698042  1.0
  Ti  Ti1370  1  0.57575758  0.41025641  0.54698042  1.0
  Ti  Ti1371  1  0.57575758  0.48717949  0.54698042  1.0
  Ti  Ti1372  1  0.57575758  0.56410256  0.54698042  1.0
  Ti  Ti1373  1  0.57575758  0.64102564  0.54698042  1.0
  Ti  Ti1374  1  0.57575758  0.71794872  0.54698042  1.0
  Ti  Ti1375  1  0.57575758  0.79487179  0.54698042  1.0
  Ti  Ti1376  1  0.57575758  0.87179487  0.54698042  1.0
  Ti  Ti1377  1  0.57575758  0.94871795  0.54698042  1.0
  Ti  Ti1378  1  0.66666667  0.02564103  0.54698042  1.0
  Ti  Ti1379  1  0.66666667  0.10256410  0.54698042  1.0
  Ti  Ti1380  1  0.66666667  0.17948718  0.54698042  1.0
  Ti  Ti1381  1  0.66666667  0.25641026  0.54698042  1.0
  Ti  Ti1382  1  0.66666667  0.33333333  0.54698042  1.0
  Ti  Ti1383  1  0.66666667  0.41025641  0.54698042  1.0
  Ti  Ti1384  1  0.66666667  0.48717949  0.54698042  1.0
  Ti  Ti1385  1  0.66666667  0.56410256  0.54698042  1.0
  Ti  Ti1386  1  0.66666667  0.64102564  0.54698042  1.0
  Ti  Ti1387  1  0.66666667  0.71794872  0.54698042  1.0
  Ti  Ti1388  1  0.66666667  0.79487179  0.54698042  1.0
  Ti  Ti1389  1  0.66666667  0.87179487  0.54698042  1.0
  Ti  Ti1390  1  0.66666667  0.94871795  0.54698042  1.0
  Ti  Ti1391  1  0.75757576  0.02564103  0.54698042  1.0
  Ti  Ti1392  1  0.75757576  0.10256410  0.54698042  1.0
  Ti  Ti1393  1  0.75757576  0.17948718  0.54698042  1.0
  Ti  Ti1394  1  0.75757576  0.25641026  0.54698042  1.0
  Ti  Ti1395  1  0.75757576  0.33333333  0.54698042  1.0
  Ti  Ti1396  1  0.75757576  0.41025641  0.54698042  1.0
  Ti  Ti1397  1  0.75757576  0.48717949  0.54698042  1.0
  Ti  Ti1398  1  0.75757576  0.56410256  0.54698042  1.0
  Ti  Ti1399  1  0.75757576  0.64102564  0.54698042  1.0
  Ti  Ti1400  1  0.75757576  0.71794872  0.54698042  1.0
  Ti  Ti1401  1  0.75757576  0.79487179  0.54698042  1.0
  Ti  Ti1402  1  0.75757576  0.87179487  0.54698042  1.0
  Ti  Ti1403  1  0.75757576  0.94871795  0.54698042  1.0
  Ti  Ti1404  1  0.84848485  0.02564103  0.54698042  1.0
  Ti  Ti1405  1  0.84848485  0.10256410  0.54698042  1.0
  Ti  Ti1406  1  0.84848485  0.17948718  0.54698042  1.0
  Ti  Ti1407  1  0.84848485  0.25641026  0.54698042  1.0
  Ti  Ti1408  1  0.84848485  0.33333333  0.54698042  1.0
  Ti  Ti1409  1  0.84848485  0.41025641  0.54698042  1.0
  Ti  Ti1410  1  0.84848485  0.48717949  0.54698042  1.0
  Ti  Ti1411  1  0.84848485  0.56410256  0.54698042  1.0
  Ti  Ti1412  1  0.84848485  0.64102564  0.54698042  1.0
  Ti  Ti1413  1  0.84848485  0.71794872  0.54698042  1.0
  Ti  Ti1414  1  0.84848485  0.79487179  0.54698042  1.0
  Ti  Ti1415  1  0.84848485  0.87179487  0.54698042  1.0
  Ti  Ti1416  1  0.84848485  0.94871795  0.54698042  1.0
  Ti  Ti1417  1  0.93939394  0.02564103  0.54698042  1.0
  Ti  Ti1418  1  0.93939394  0.10256410  0.54698042  1.0
  Ti  Ti1419  1  0.93939394  0.17948718  0.54698042  1.0
  Ti  Ti1420  1  0.93939394  0.25641026  0.54698042  1.0
  Ti  Ti1421  1  0.93939394  0.33333333  0.54698042  1.0
  Ti  Ti1422  1  0.93939394  0.41025641  0.54698042  1.0
  Ti  Ti1423  1  0.93939394  0.48717949  0.54698042  1.0
  Ti  Ti1424  1  0.93939394  0.56410256  0.54698042  1.0
  Ti  Ti1425  1  0.93939394  0.64102564  0.54698042  1.0
  Ti  Ti1426  1  0.93939394  0.71794872  0.54698042  1.0
  Ti  Ti1427  1  0.93939394  0.79487179  0.54698042  1.0
  Ti  Ti1428  1  0.93939394  0.87179487  0.54698042  1.0
  Ti  Ti1429  1  0.93939394  0.94871795  0.54698042  1.0
  Ti  Ti1430  1  0.06060606  0.05128205  0.41364708  1.0
  Ti  Ti1431  1  0.06060606  0.12820513  0.41364708  1.0
  Ti  Ti1432  1  0.06060606  0.20512821  0.41364708  1.0
  Ti  Ti1433  1  0.06060606  0.28205128  0.41364708  1.0
  Ti  Ti1434  1  0.06060606  0.35897436  0.41364708  1.0
  Ti  Ti1435  1  0.06060606  0.43589744  0.41364708  1.0
  Ti  Ti1436  1  0.06060606  0.51282051  0.41364708  1.0
  Ti  Ti1437  1  0.06060606  0.58974359  0.41364708  1.0
  Ti  Ti1438  1  0.06060606  0.66666667  0.41364708  1.0
  Ti  Ti1439  1  0.06060606  0.74358974  0.41364708  1.0
  Ti  Ti1440  1  0.06060606  0.82051282  0.41364708  1.0
  Ti  Ti1441  1  0.06060606  0.89743590  0.41364708  1.0
  Ti  Ti1442  1  0.06060606  0.97435897  0.41364708  1.0
  Ti  Ti1443  1  0.15151515  0.05128205  0.41364708  1.0
  Ti  Ti1444  1  0.15151515  0.12820513  0.41364708  1.0
  Ti  Ti1445  1  0.15151515  0.20512821  0.41364708  1.0
  Ti  Ti1446  1  0.15151515  0.28205128  0.41364708  1.0
  Ti  Ti1447  1  0.15151515  0.35897436  0.41364708  1.0
  Ti  Ti1448  1  0.15151515  0.43589744  0.41364708  1.0
  Ti  Ti1449  1  0.15151515  0.51282051  0.41364708  1.0
  Ti  Ti1450  1  0.15151515  0.58974359  0.41364708  1.0
  Ti  Ti1451  1  0.15151515  0.66666667  0.41364708  1.0
  Ti  Ti1452  1  0.15151515  0.74358974  0.41364708  1.0
  Ti  Ti1453  1  0.15151515  0.82051282  0.41364708  1.0
  Ti  Ti1454  1  0.15151515  0.89743590  0.41364708  1.0
  Ti  Ti1455  1  0.15151515  0.97435897  0.41364708  1.0
  Ti  Ti1456  1  0.24242424  0.05128205  0.41364708  1.0
  Ti  Ti1457  1  0.24242424  0.12820513  0.41364708  1.0
  Ti  Ti1458  1  0.24242424  0.20512821  0.41364708  1.0
  Ti  Ti1459  1  0.24242424  0.28205128  0.41364708  1.0
  Ti  Ti1460  1  0.24242424  0.35897436  0.41364708  1.0
  Ti  Ti1461  1  0.24242424  0.43589744  0.41364708  1.0
  Ti  Ti1462  1  0.24242424  0.51282051  0.41364708  1.0
  Ti  Ti1463  1  0.24242424  0.58974359  0.41364708  1.0
  Ti  Ti1464  1  0.24242424  0.66666667  0.41364708  1.0
  Ti  Ti1465  1  0.24242424  0.74358974  0.41364708  1.0
  Ti  Ti1466  1  0.24242424  0.82051282  0.41364708  1.0
  Ti  Ti1467  1  0.24242424  0.89743590  0.41364708  1.0
  Ti  Ti1468  1  0.24242424  0.97435897  0.41364708  1.0
  Ti  Ti1469  1  0.33333333  0.05128205  0.41364708  1.0
  Ti  Ti1470  1  0.33333333  0.12820513  0.41364708  1.0
  Ti  Ti1471  1  0.33333333  0.20512821  0.41364708  1.0
  Ti  Ti1472  1  0.33333333  0.28205128  0.41364708  1.0
  Ti  Ti1473  1  0.33333333  0.35897436  0.41364708  1.0
  Ti  Ti1474  1  0.33333333  0.43589744  0.41364708  1.0
  Ti  Ti1475  1  0.33333333  0.51282051  0.41364708  1.0
  Ti  Ti1476  1  0.33333333  0.58974359  0.41364708  1.0
  Ti  Ti1477  1  0.33333333  0.66666667  0.41364708  1.0
  Ti  Ti1478  1  0.33333333  0.74358974  0.41364708  1.0
  Ti  Ti1479  1  0.33333333  0.82051282  0.41364708  1.0
  Ti  Ti1480  1  0.33333333  0.89743590  0.41364708  1.0
  Ti  Ti1481  1  0.33333333  0.97435897  0.41364708  1.0
  Ti  Ti1482  1  0.42424242  0.05128205  0.41364708  1.0
  Ti  Ti1483  1  0.42424242  0.12820513  0.41364708  1.0
  Ti  Ti1484  1  0.42424242  0.20512821  0.41364708  1.0
  Ti  Ti1485  1  0.42424242  0.28205128  0.41364708  1.0
  Ti  Ti1486  1  0.42424242  0.35897436  0.41364708  1.0
  Ti  Ti1487  1  0.42424242  0.43589744  0.41364708  1.0
  Ti  Ti1488  1  0.42424242  0.51282051  0.41364708  1.0
  Ti  Ti1489  1  0.42424242  0.58974359  0.41364708  1.0
  Ti  Ti1490  1  0.42424242  0.66666667  0.41364708  1.0
  Ti  Ti1491  1  0.42424242  0.74358974  0.41364708  1.0
  Ti  Ti1492  1  0.42424242  0.82051282  0.41364708  1.0
  Ti  Ti1493  1  0.42424242  0.89743590  0.41364708  1.0
  Ti  Ti1494  1  0.42424242  0.97435897  0.41364708  1.0
  Ti  Ti1495  1  0.51515152  0.05128205  0.41364708  1.0
  Ti  Ti1496  1  0.51515152  0.12820513  0.41364708  1.0
  Ti  Ti1497  1  0.51515152  0.20512821  0.41364708  1.0
  Ti  Ti1498  1  0.51515152  0.28205128  0.41364708  1.0
  Ti  Ti1499  1  0.51515152  0.35897436  0.41364708  1.0
  Ti  Ti1500  1  0.51515152  0.43589744  0.41364708  1.0
  Ti  Ti1501  1  0.51515152  0.51282051  0.41364708  1.0
  Ti  Ti1502  1  0.51515152  0.58974359  0.41364708  1.0
  Ti  Ti1503  1  0.51515152  0.66666667  0.41364708  1.0
  Ti  Ti1504  1  0.51515152  0.74358974  0.41364708  1.0
  Ti  Ti1505  1  0.51515152  0.82051282  0.41364708  1.0
  Ti  Ti1506  1  0.51515152  0.89743590  0.41364708  1.0
  Ti  Ti1507  1  0.51515152  0.97435897  0.41364708  1.0
  Ti  Ti1508  1  0.60606061  0.05128205  0.41364708  1.0
  Ti  Ti1509  1  0.60606061  0.12820513  0.41364708  1.0
  Ti  Ti1510  1  0.60606061  0.20512821  0.41364708  1.0
  Ti  Ti1511  1  0.60606061  0.28205128  0.41364708  1.0
  Ti  Ti1512  1  0.60606061  0.35897436  0.41364708  1.0
  Ti  Ti1513  1  0.60606061  0.43589744  0.41364708  1.0
  Ti  Ti1514  1  0.60606061  0.51282051  0.41364708  1.0
  Ti  Ti1515  1  0.60606061  0.58974359  0.41364708  1.0
  Ti  Ti1516  1  0.60606061  0.66666667  0.41364708  1.0
  Ti  Ti1517  1  0.60606061  0.74358974  0.41364708  1.0
  Ti  Ti1518  1  0.60606061  0.82051282  0.41364708  1.0
  Ti  Ti1519  1  0.60606061  0.89743590  0.41364708  1.0
  Ti  Ti1520  1  0.60606061  0.97435897  0.41364708  1.0
  Ti  Ti1521  1  0.69696970  0.05128205  0.41364708  1.0
  Ti  Ti1522  1  0.69696970  0.12820513  0.41364708  1.0
  Ti  Ti1523  1  0.69696970  0.20512821  0.41364708  1.0
  Ti  Ti1524  1  0.69696970  0.28205128  0.41364708  1.0
  Ti  Ti1525  1  0.69696970  0.35897436  0.41364708  1.0
  Ti  Ti1526  1  0.69696970  0.43589744  0.41364708  1.0
  Ti  Ti1527  1  0.69696970  0.51282051  0.41364708  1.0
  Ti  Ti1528  1  0.69696970  0.58974359  0.41364708  1.0
  Ti  Ti1529  1  0.69696970  0.66666667  0.41364708  1.0
  Ti  Ti1530  1  0.69696970  0.74358974  0.41364708  1.0
  Ti  Ti1531  1  0.69696970  0.82051282  0.41364708  1.0
  Ti  Ti1532  1  0.69696970  0.89743590  0.41364708  1.0
  Ti  Ti1533  1  0.69696970  0.97435897  0.41364708  1.0
  Ti  Ti1534  1  0.78787879  0.05128205  0.41364708  1.0
  Ti  Ti1535  1  0.78787879  0.12820513  0.41364708  1.0
  Ti  Ti1536  1  0.78787879  0.20512821  0.41364708  1.0
  Ti  Ti1537  1  0.78787879  0.28205128  0.41364708  1.0
  Ti  Ti1538  1  0.78787879  0.35897436  0.41364708  1.0
  Ti  Ti1539  1  0.78787879  0.43589744  0.41364708  1.0
  Ti  Ti1540  1  0.78787879  0.51282051  0.41364708  1.0
  Ti  Ti1541  1  0.78787879  0.58974359  0.41364708  1.0
  Ti  Ti1542  1  0.78787879  0.66666667  0.41364708  1.0
  Ti  Ti1543  1  0.78787879  0.74358974  0.41364708  1.0
  Ti  Ti1544  1  0.78787879  0.82051282  0.41364708  1.0
  Ti  Ti1545  1  0.78787879  0.89743590  0.41364708  1.0
  Ti  Ti1546  1  0.78787879  0.97435897  0.41364708  1.0
  Ti  Ti1547  1  0.87878788  0.05128205  0.41364708  1.0
  Ti  Ti1548  1  0.87878788  0.12820513  0.41364708  1.0
  Ti  Ti1549  1  0.87878788  0.20512821  0.41364708  1.0
  Ti  Ti1550  1  0.87878788  0.28205128  0.41364708  1.0
  Ti  Ti1551  1  0.87878788  0.35897436  0.41364708  1.0
  Ti  Ti1552  1  0.87878788  0.43589744  0.41364708  1.0
  Ti  Ti1553  1  0.87878788  0.51282051  0.41364708  1.0
  Ti  Ti1554  1  0.87878788  0.58974359  0.41364708  1.0
  Ti  Ti1555  1  0.87878788  0.66666667  0.41364708  1.0
  Ti  Ti1556  1  0.87878788  0.74358974  0.41364708  1.0
  Ti  Ti1557  1  0.87878788  0.82051282  0.41364708  1.0
  Ti  Ti1558  1  0.87878788  0.89743590  0.41364708  1.0
  Ti  Ti1559  1  0.87878788  0.97435897  0.41364708  1.0
  Ti  Ti1560  1  0.96969697  0.05128205  0.41364708  1.0
  Ti  Ti1561  1  0.96969697  0.12820513  0.41364708  1.0
  Ti  Ti1562  1  0.96969697  0.20512821  0.41364708  1.0
  Ti  Ti1563  1  0.96969697  0.28205128  0.41364708  1.0
  Ti  Ti1564  1  0.96969697  0.35897436  0.41364708  1.0
  Ti  Ti1565  1  0.96969697  0.43589744  0.41364708  1.0
  Ti  Ti1566  1  0.96969697  0.51282051  0.41364708  1.0
  Ti  Ti1567  1  0.96969697  0.58974359  0.41364708  1.0
  Ti  Ti1568  1  0.96969697  0.66666667  0.41364708  1.0
  Ti  Ti1569  1  0.96969697  0.74358974  0.41364708  1.0
  Ti  Ti1570  1  0.96969697  0.82051282  0.41364708  1.0
  Ti  Ti1571  1  0.96969697  0.89743590  0.41364708  1.0
  Ti  Ti1572  1  0.96969697  0.97435897  0.41364708  1.0
  Ti  Ti1573  1  0.00000000  0.00000000  0.78031375  1.0
  Ti  Ti1574  1  0.00000000  0.07692308  0.78031375  1.0
  Ti  Ti1575  1  0.00000000  0.15384615  0.78031375  1.0
  Ti  Ti1576  1  0.00000000  0.23076923  0.78031375  1.0
  Ti  Ti1577  1  0.00000000  0.30769231  0.78031375  1.0
  Ti  Ti1578  1  0.00000000  0.38461538  0.78031375  1.0
  Ti  Ti1579  1  0.00000000  0.46153846  0.78031375  1.0
  Ti  Ti1580  1  0.00000000  0.53846154  0.78031375  1.0
  Ti  Ti1581  1  0.00000000  0.61538462  0.78031375  1.0
  Ti  Ti1582  1  0.00000000  0.69230769  0.78031375  1.0
  Ti  Ti1583  1  0.00000000  0.76923077  0.78031375  1.0
  Ti  Ti1584  1  0.00000000  0.84615385  0.78031375  1.0
  Ti  Ti1585  1  0.00000000  0.92307692  0.78031375  1.0
  Ti  Ti1586  1  0.09090909  0.00000000  0.78031375  1.0
  Ti  Ti1587  1  0.09090909  0.07692308  0.78031375  1.0
  Ti  Ti1588  1  0.09090909  0.15384615  0.78031375  1.0
  Ti  Ti1589  1  0.09090909  0.23076923  0.78031375  1.0
  Ti  Ti1590  1  0.09090909  0.30769231  0.78031375  1.0
  Ti  Ti1591  1  0.09090909  0.38461538  0.78031375  1.0
  Ti  Ti1592  1  0.09090909  0.46153846  0.78031375  1.0
  Ti  Ti1593  1  0.09090909  0.53846154  0.78031375  1.0
  Ti  Ti1594  1  0.09090909  0.61538462  0.78031375  1.0
  Ti  Ti1595  1  0.09090909  0.69230769  0.78031375  1.0
  Ti  Ti1596  1  0.09090909  0.76923077  0.78031375  1.0
  Ti  Ti1597  1  0.09090909  0.84615385  0.78031375  1.0
  Ti  Ti1598  1  0.09090909  0.92307692  0.78031375  1.0
  Ti  Ti1599  1  0.18181818  0.00000000  0.78031375  1.0
  Ti  Ti1600  1  0.18181818  0.07692308  0.78031375  1.0
  Ti  Ti1601  1  0.18181818  0.15384615  0.78031375  1.0
  Ti  Ti1602  1  0.18181818  0.23076923  0.78031375  1.0
  Ti  Ti1603  1  0.18181818  0.30769231  0.78031375  1.0
  Ti  Ti1604  1  0.18181818  0.38461538  0.78031375  1.0
  Ti  Ti1605  1  0.18181818  0.46153846  0.78031375  1.0
  Ti  Ti1606  1  0.18181818  0.53846154  0.78031375  1.0
  Ti  Ti1607  1  0.18181818  0.61538462  0.78031375  1.0
  Ti  Ti1608  1  0.18181818  0.69230769  0.78031375  1.0
  Ti  Ti1609  1  0.18181818  0.76923077  0.78031375  1.0
  Ti  Ti1610  1  0.18181818  0.84615385  0.78031375  1.0
  Ti  Ti1611  1  0.18181818  0.92307692  0.78031375  1.0
  Ti  Ti1612  1  0.27272727  0.00000000  0.78031375  1.0
  Ti  Ti1613  1  0.27272727  0.07692308  0.78031375  1.0
  Ti  Ti1614  1  0.27272727  0.15384615  0.78031375  1.0
  Ti  Ti1615  1  0.27272727  0.23076923  0.78031375  1.0
  Ti  Ti1616  1  0.27272727  0.30769231  0.78031375  1.0
  Ti  Ti1617  1  0.27272727  0.38461538  0.78031375  1.0
  Ti  Ti1618  1  0.27272727  0.46153846  0.78031375  1.0
  Ti  Ti1619  1  0.27272727  0.53846154  0.78031375  1.0
  Ti  Ti1620  1  0.27272727  0.61538462  0.78031375  1.0
  Ti  Ti1621  1  0.27272727  0.69230769  0.78031375  1.0
  Ti  Ti1622  1  0.27272727  0.76923077  0.78031375  1.0
  Ti  Ti1623  1  0.27272727  0.84615385  0.78031375  1.0
  Ti  Ti1624  1  0.27272727  0.92307692  0.78031375  1.0
  Ti  Ti1625  1  0.36363636  0.00000000  0.78031375  1.0
  Ti  Ti1626  1  0.36363636  0.07692308  0.78031375  1.0
  Ti  Ti1627  1  0.36363636  0.15384615  0.78031375  1.0
  Ti  Ti1628  1  0.36363636  0.23076923  0.78031375  1.0
  Ti  Ti1629  1  0.36363636  0.30769231  0.78031375  1.0
  Ti  Ti1630  1  0.36363636  0.38461538  0.78031375  1.0
  Ti  Ti1631  1  0.36363636  0.46153846  0.78031375  1.0
  Ti  Ti1632  1  0.36363636  0.53846154  0.78031375  1.0
  Ti  Ti1633  1  0.36363636  0.61538462  0.78031375  1.0
  Ti  Ti1634  1  0.36363636  0.69230769  0.78031375  1.0
  Ti  Ti1635  1  0.36363636  0.76923077  0.78031375  1.0
  Ti  Ti1636  1  0.36363636  0.84615385  0.78031375  1.0
  Ti  Ti1637  1  0.36363636  0.92307692  0.78031375  1.0
  Ti  Ti1638  1  0.45454545  0.00000000  0.78031375  1.0
  Ti  Ti1639  1  0.45454545  0.07692308  0.78031375  1.0
  Ti  Ti1640  1  0.45454545  0.15384615  0.78031375  1.0
  Ti  Ti1641  1  0.45454545  0.23076923  0.78031375  1.0
  Ti  Ti1642  1  0.45454545  0.30769231  0.78031375  1.0
  Ti  Ti1643  1  0.45454545  0.38461538  0.78031375  1.0
  Ti  Ti1644  1  0.45454545  0.46153846  0.78031375  1.0
  Ti  Ti1645  1  0.45454545  0.53846154  0.78031375  1.0
  Ti  Ti1646  1  0.45454545  0.61538462  0.78031375  1.0
  Ti  Ti1647  1  0.45454545  0.69230769  0.78031375  1.0
  Ti  Ti1648  1  0.45454545  0.76923077  0.78031375  1.0
  Ti  Ti1649  1  0.45454545  0.84615385  0.78031375  1.0
  Ti  Ti1650  1  0.45454545  0.92307692  0.78031375  1.0
  Ti  Ti1651  1  0.54545455  0.00000000  0.78031375  1.0
  Ti  Ti1652  1  0.54545455  0.07692308  0.78031375  1.0
  Ti  Ti1653  1  0.54545455  0.15384615  0.78031375  1.0
  Ti  Ti1654  1  0.54545455  0.23076923  0.78031375  1.0
  Ti  Ti1655  1  0.54545455  0.30769231  0.78031375  1.0
  Ti  Ti1656  1  0.54545455  0.38461538  0.78031375  1.0
  Ti  Ti1657  1  0.54545455  0.46153846  0.78031375  1.0
  Ti  Ti1658  1  0.54545455  0.53846154  0.78031375  1.0
  Ti  Ti1659  1  0.54545455  0.61538462  0.78031375  1.0
  Ti  Ti1660  1  0.54545455  0.69230769  0.78031375  1.0
  Ti  Ti1661  1  0.54545455  0.76923077  0.78031375  1.0
  Ti  Ti1662  1  0.54545455  0.84615385  0.78031375  1.0
  Ti  Ti1663  1  0.54545455  0.92307692  0.78031375  1.0
  Ti  Ti1664  1  0.63636364  0.00000000  0.78031375  1.0
  Ti  Ti1665  1  0.63636364  0.07692308  0.78031375  1.0
  Ti  Ti1666  1  0.63636364  0.15384615  0.78031375  1.0
  Ti  Ti1667  1  0.63636364  0.23076923  0.78031375  1.0
  Ti  Ti1668  1  0.63636364  0.30769231  0.78031375  1.0
  Ti  Ti1669  1  0.63636364  0.38461538  0.78031375  1.0
  Ti  Ti1670  1  0.63636364  0.46153846  0.78031375  1.0
  Ti  Ti1671  1  0.63636364  0.53846154  0.78031375  1.0
  Ti  Ti1672  1  0.63636364  0.61538462  0.78031375  1.0
  Ti  Ti1673  1  0.63636364  0.69230769  0.78031375  1.0
  Ti  Ti1674  1  0.63636364  0.76923077  0.78031375  1.0
  Ti  Ti1675  1  0.63636364  0.84615385  0.78031375  1.0
  Ti  Ti1676  1  0.63636364  0.92307692  0.78031375  1.0
  Ti  Ti1677  1  0.72727273  0.00000000  0.78031375  1.0
  Ti  Ti1678  1  0.72727273  0.07692308  0.78031375  1.0
  Ti  Ti1679  1  0.72727273  0.15384615  0.78031375  1.0
  Ti  Ti1680  1  0.72727273  0.23076923  0.78031375  1.0
  Ti  Ti1681  1  0.72727273  0.30769231  0.78031375  1.0
  Ti  Ti1682  1  0.72727273  0.38461538  0.78031375  1.0
  Ti  Ti1683  1  0.72727273  0.46153846  0.78031375  1.0
  Ti  Ti1684  1  0.72727273  0.53846154  0.78031375  1.0
  Ti  Ti1685  1  0.72727273  0.61538462  0.78031375  1.0
  Ti  Ti1686  1  0.72727273  0.69230769  0.78031375  1.0
  Ti  Ti1687  1  0.72727273  0.76923077  0.78031375  1.0
  Ti  Ti1688  1  0.72727273  0.84615385  0.78031375  1.0
  Ti  Ti1689  1  0.72727273  0.92307692  0.78031375  1.0
  Ti  Ti1690  1  0.81818182  0.00000000  0.78031375  1.0
  Ti  Ti1691  1  0.81818182  0.07692308  0.78031375  1.0
  Ti  Ti1692  1  0.81818182  0.15384615  0.78031375  1.0
  Ti  Ti1693  1  0.81818182  0.23076923  0.78031375  1.0
  Ti  Ti1694  1  0.81818182  0.30769231  0.78031375  1.0
  Ti  Ti1695  1  0.81818182  0.38461538  0.78031375  1.0
  Ti  Ti1696  1  0.81818182  0.46153846  0.78031375  1.0
  Ti  Ti1697  1  0.81818182  0.53846154  0.78031375  1.0
  Ti  Ti1698  1  0.81818182  0.61538462  0.78031375  1.0
  Ti  Ti1699  1  0.81818182  0.69230769  0.78031375  1.0
  Ti  Ti1700  1  0.81818182  0.76923077  0.78031375  1.0
  Ti  Ti1701  1  0.81818182  0.84615385  0.78031375  1.0
  Ti  Ti1702  1  0.81818182  0.92307692  0.78031375  1.0
  Ti  Ti1703  1  0.90909091  0.00000000  0.78031375  1.0
  Ti  Ti1704  1  0.90909091  0.07692308  0.78031375  1.0
  Ti  Ti1705  1  0.90909091  0.15384615  0.78031375  1.0
  Ti  Ti1706  1  0.90909091  0.23076923  0.78031375  1.0
  Ti  Ti1707  1  0.90909091  0.30769231  0.78031375  1.0
  Ti  Ti1708  1  0.90909091  0.38461538  0.78031375  1.0
  Ti  Ti1709  1  0.90909091  0.46153846  0.78031375  1.0
  Ti  Ti1710  1  0.90909091  0.53846154  0.78031375  1.0
  Ti  Ti1711  1  0.90909091  0.61538462  0.78031375  1.0
  Ti  Ti1712  1  0.90909091  0.69230769  0.78031375  1.0
  Ti  Ti1713  1  0.90909091  0.76923077  0.78031375  1.0
  Ti  Ti1714  1  0.90909091  0.84615385  0.78031375  1.0
  Ti  Ti1715  1  0.90909091  0.92307692  0.78031375  1.0
  Ti  Ti1716  1  0.03030303  0.02564103  0.64698042  1.0
  Ti  Ti1717  1  0.03030303  0.10256410  0.64698042  1.0
  Ti  Ti1718  1  0.03030303  0.17948718  0.64698042  1.0
  Ti  Ti1719  1  0.03030303  0.25641026  0.64698042  1.0
  Ti  Ti1720  1  0.03030303  0.33333333  0.64698042  1.0
  Ti  Ti1721  1  0.03030303  0.41025641  0.64698042  1.0
  Ti  Ti1722  1  0.03030303  0.48717949  0.64698042  1.0
  Ti  Ti1723  1  0.03030303  0.56410256  0.64698042  1.0
  Ti  Ti1724  1  0.03030303  0.64102564  0.64698042  1.0
  Ti  Ti1725  1  0.03030303  0.71794872  0.64698042  1.0
  Ti  Ti1726  1  0.03030303  0.79487179  0.64698042  1.0
  Ti  Ti1727  1  0.03030303  0.87179487  0.64698042  1.0
  Ti  Ti1728  1  0.03030303  0.94871795  0.64698042  1.0
  Ti  Ti1729  1  0.12121212  0.02564103  0.64698042  1.0
  Ti  Ti1730  1  0.12121212  0.10256410  0.64698042  1.0
  Ti  Ti1731  1  0.12121212  0.17948718  0.64698042  1.0
  Ti  Ti1732  1  0.12121212  0.25641026  0.64698042  1.0
  Ti  Ti1733  1  0.12121212  0.33333333  0.64698042  1.0
  Ti  Ti1734  1  0.12121212  0.41025641  0.64698042  1.0
  Ti  Ti1735  1  0.12121212  0.48717949  0.64698042  1.0
  Ti  Ti1736  1  0.12121212  0.56410256  0.64698042  1.0
  Ti  Ti1737  1  0.12121212  0.64102564  0.64698042  1.0
  Ti  Ti1738  1  0.12121212  0.71794872  0.64698042  1.0
  Ti  Ti1739  1  0.12121212  0.79487179  0.64698042  1.0
  Ti  Ti1740  1  0.12121212  0.87179487  0.64698042  1.0
  Ti  Ti1741  1  0.12121212  0.94871795  0.64698042  1.0
  Ti  Ti1742  1  0.21212121  0.02564103  0.64698042  1.0
  Ti  Ti1743  1  0.21212121  0.10256410  0.64698042  1.0
  Ti  Ti1744  1  0.21212121  0.17948718  0.64698042  1.0
  Ti  Ti1745  1  0.21212121  0.25641026  0.64698042  1.0
  Ti  Ti1746  1  0.21212121  0.33333333  0.64698042  1.0
  Ti  Ti1747  1  0.21212121  0.41025641  0.64698042  1.0
  Ti  Ti1748  1  0.21212121  0.48717949  0.64698042  1.0
  Ti  Ti1749  1  0.21212121  0.56410256  0.64698042  1.0
  Ti  Ti1750  1  0.21212121  0.64102564  0.64698042  1.0
  Ti  Ti1751  1  0.21212121  0.71794872  0.64698042  1.0
  Ti  Ti1752  1  0.21212121  0.79487179  0.64698042  1.0
  Ti  Ti1753  1  0.21212121  0.87179487  0.64698042  1.0
  Ti  Ti1754  1  0.21212121  0.94871795  0.64698042  1.0
  Ti  Ti1755  1  0.30303030  0.02564103  0.64698042  1.0
  Ti  Ti1756  1  0.30303030  0.10256410  0.64698042  1.0
  Ti  Ti1757  1  0.30303030  0.17948718  0.64698042  1.0
  Ti  Ti1758  1  0.30303030  0.25641026  0.64698042  1.0
  Ti  Ti1759  1  0.30303030  0.33333333  0.64698042  1.0
  Ti  Ti1760  1  0.30303030  0.41025641  0.64698042  1.0
  Ti  Ti1761  1  0.30303030  0.48717949  0.64698042  1.0
  Ti  Ti1762  1  0.30303030  0.56410256  0.64698042  1.0
  Ti  Ti1763  1  0.30303030  0.64102564  0.64698042  1.0
  Ti  Ti1764  1  0.30303030  0.71794872  0.64698042  1.0
  Ti  Ti1765  1  0.30303030  0.79487179  0.64698042  1.0
  Ti  Ti1766  1  0.30303030  0.87179487  0.64698042  1.0
  Ti  Ti1767  1  0.30303030  0.94871795  0.64698042  1.0
  Ti  Ti1768  1  0.39393939  0.02564103  0.64698042  1.0
  Ti  Ti1769  1  0.39393939  0.10256410  0.64698042  1.0
  Ti  Ti1770  1  0.39393939  0.17948718  0.64698042  1.0
  Ti  Ti1771  1  0.39393939  0.25641026  0.64698042  1.0
  Ti  Ti1772  1  0.39393939  0.33333333  0.64698042  1.0
  Ti  Ti1773  1  0.39393939  0.41025641  0.64698042  1.0
  Ti  Ti1774  1  0.39393939  0.48717949  0.64698042  1.0
  Ti  Ti1775  1  0.39393939  0.56410256  0.64698042  1.0
  Ti  Ti1776  1  0.39393939  0.64102564  0.64698042  1.0
  Ti  Ti1777  1  0.39393939  0.71794872  0.64698042  1.0
  Ti  Ti1778  1  0.39393939  0.79487179  0.64698042  1.0
  Ti  Ti1779  1  0.39393939  0.87179487  0.64698042  1.0
  Ti  Ti1780  1  0.39393939  0.94871795  0.64698042  1.0
  Ti  Ti1781  1  0.48484848  0.02564103  0.64698042  1.0
  Ti  Ti1782  1  0.48484848  0.10256410  0.64698042  1.0
  Ti  Ti1783  1  0.48484848  0.17948718  0.64698042  1.0
  Ti  Ti1784  1  0.48484848  0.25641026  0.64698042  1.0
  Ti  Ti1785  1  0.48484848  0.33333333  0.64698042  1.0
  Ti  Ti1786  1  0.48484848  0.41025641  0.64698042  1.0
  Ti  Ti1787  1  0.48484848  0.48717949  0.64698042  1.0
  Ti  Ti1788  1  0.48484848  0.56410256  0.64698042  1.0
  Ti  Ti1789  1  0.48484848  0.64102564  0.64698042  1.0
  Ti  Ti1790  1  0.48484848  0.71794872  0.64698042  1.0
  Ti  Ti1791  1  0.48484848  0.79487179  0.64698042  1.0
  Ti  Ti1792  1  0.48484848  0.87179487  0.64698042  1.0
  Ti  Ti1793  1  0.48484848  0.94871795  0.64698042  1.0
  Ti  Ti1794  1  0.57575758  0.02564103  0.64698042  1.0
  Ti  Ti1795  1  0.57575758  0.10256410  0.64698042  1.0
  Ti  Ti1796  1  0.57575758  0.17948718  0.64698042  1.0
  Ti  Ti1797  1  0.57575758  0.25641026  0.64698042  1.0
  Ti  Ti1798  1  0.57575758  0.33333333  0.64698042  1.0
  Ti  Ti1799  1  0.57575758  0.41025641  0.64698042  1.0
  Ti  Ti1800  1  0.57575758  0.48717949  0.64698042  1.0
  Ti  Ti1801  1  0.57575758  0.56410256  0.64698042  1.0
  Ti  Ti1802  1  0.57575758  0.64102564  0.64698042  1.0
  Ti  Ti1803  1  0.57575758  0.71794872  0.64698042  1.0
  Ti  Ti1804  1  0.57575758  0.79487179  0.64698042  1.0
  Ti  Ti1805  1  0.57575758  0.87179487  0.64698042  1.0
  Ti  Ti1806  1  0.57575758  0.94871795  0.64698042  1.0
  Ti  Ti1807  1  0.66666667  0.02564103  0.64698042  1.0
  Ti  Ti1808  1  0.66666667  0.10256410  0.64698042  1.0
  Ti  Ti1809  1  0.66666667  0.17948718  0.64698042  1.0
  Ti  Ti1810  1  0.66666667  0.25641026  0.64698042  1.0
  Ti  Ti1811  1  0.66666667  0.33333333  0.64698042  1.0
  Ti  Ti1812  1  0.66666667  0.41025641  0.64698042  1.0
  Ti  Ti1813  1  0.66666667  0.48717949  0.64698042  1.0
  Ti  Ti1814  1  0.66666667  0.56410256  0.64698042  1.0
  Ti  Ti1815  1  0.66666667  0.64102564  0.64698042  1.0
  Ti  Ti1816  1  0.66666667  0.71794872  0.64698042  1.0
  Ti  Ti1817  1  0.66666667  0.79487179  0.64698042  1.0
  Ti  Ti1818  1  0.66666667  0.87179487  0.64698042  1.0
  Ti  Ti1819  1  0.66666667  0.94871795  0.64698042  1.0
  Ti  Ti1820  1  0.75757576  0.02564103  0.64698042  1.0
  Ti  Ti1821  1  0.75757576  0.10256410  0.64698042  1.0
  Ti  Ti1822  1  0.75757576  0.17948718  0.64698042  1.0
  Ti  Ti1823  1  0.75757576  0.25641026  0.64698042  1.0
  Ti  Ti1824  1  0.75757576  0.33333333  0.64698042  1.0
  Ti  Ti1825  1  0.75757576  0.41025641  0.64698042  1.0
  Ti  Ti1826  1  0.75757576  0.48717949  0.64698042  1.0
  Ti  Ti1827  1  0.75757576  0.56410256  0.64698042  1.0
  Ti  Ti1828  1  0.75757576  0.64102564  0.64698042  1.0
  Ti  Ti1829  1  0.75757576  0.71794872  0.64698042  1.0
  Ti  Ti1830  1  0.75757576  0.79487179  0.64698042  1.0
  Ti  Ti1831  1  0.75757576  0.87179487  0.64698042  1.0
  Ti  Ti1832  1  0.75757576  0.94871795  0.64698042  1.0
  Ti  Ti1833  1  0.84848485  0.02564103  0.64698042  1.0
  Ti  Ti1834  1  0.84848485  0.10256410  0.64698042  1.0
  Ti  Ti1835  1  0.84848485  0.17948718  0.64698042  1.0
  Ti  Ti1836  1  0.84848485  0.25641026  0.64698042  1.0
  Ti  Ti1837  1  0.84848485  0.33333333  0.64698042  1.0
  Ti  Ti1838  1  0.84848485  0.41025641  0.64698042  1.0
  Ti  Ti1839  1  0.84848485  0.48717949  0.64698042  1.0
  Ti  Ti1840  1  0.84848485  0.56410256  0.64698042  1.0
  Ti  Ti1841  1  0.84848485  0.64102564  0.64698042  1.0
  Ti  Ti1842  1  0.84848485  0.71794872  0.64698042  1.0
  Ti  Ti1843  1  0.84848485  0.79487179  0.64698042  1.0
  Ti  Ti1844  1  0.84848485  0.87179487  0.64698042  1.0
  Ti  Ti1845  1  0.84848485  0.94871795  0.64698042  1.0
  Ti  Ti1846  1  0.93939394  0.02564103  0.64698042  1.0
  Ti  Ti1847  1  0.93939394  0.10256410  0.64698042  1.0
  Ti  Ti1848  1  0.93939394  0.17948718  0.64698042  1.0
  Ti  Ti1849  1  0.93939394  0.25641026  0.64698042  1.0
  Ti  Ti1850  1  0.93939394  0.33333333  0.64698042  1.0
  Ti  Ti1851  1  0.93939394  0.41025641  0.64698042  1.0
  Ti  Ti1852  1  0.93939394  0.48717949  0.64698042  1.0
  Ti  Ti1853  1  0.93939394  0.56410256  0.64698042  1.0
  Ti  Ti1854  1  0.93939394  0.64102564  0.64698042  1.0
  Ti  Ti1855  1  0.93939394  0.71794872  0.64698042  1.0
  Ti  Ti1856  1  0.93939394  0.79487179  0.64698042  1.0
  Ti  Ti1857  1  0.93939394  0.87179487  0.64698042  1.0
  Ti  Ti1858  1  0.93939394  0.94871795  0.64698042  1.0
  Ti  Ti1859  1  0.06060606  0.05128205  0.71364708  1.0
  Ti  Ti1860  1  0.06060606  0.12820513  0.71364708  1.0
  Ti  Ti1861  1  0.06060606  0.20512821  0.71364708  1.0
  Ti  Ti1862  1  0.06060606  0.28205128  0.71364708  1.0
  Ti  Ti1863  1  0.06060606  0.35897436  0.71364708  1.0
  Ti  Ti1864  1  0.06060606  0.43589744  0.71364708  1.0
  Ti  Ti1865  1  0.06060606  0.51282051  0.71364708  1.0
  Ti  Ti1866  1  0.06060606  0.58974359  0.71364708  1.0
  Ti  Ti1867  1  0.06060606  0.66666667  0.71364708  1.0
  Ti  Ti1868  1  0.06060606  0.74358974  0.71364708  1.0
  Ti  Ti1869  1  0.06060606  0.82051282  0.71364708  1.0
  Ti  Ti1870  1  0.06060606  0.89743590  0.71364708  1.0
  Ti  Ti1871  1  0.06060606  0.97435897  0.71364708  1.0
  Ti  Ti1872  1  0.15151515  0.05128205  0.71364708  1.0
  Ti  Ti1873  1  0.15151515  0.12820513  0.71364708  1.0
  Ti  Ti1874  1  0.15151515  0.20512821  0.71364708  1.0
  Ti  Ti1875  1  0.15151515  0.28205128  0.71364708  1.0
  Ti  Ti1876  1  0.15151515  0.35897436  0.71364708  1.0
  Ti  Ti1877  1  0.15151515  0.43589744  0.71364708  1.0
  Ti  Ti1878  1  0.15151515  0.51282051  0.71364708  1.0
  Ti  Ti1879  1  0.15151515  0.58974359  0.71364708  1.0
  Ti  Ti1880  1  0.15151515  0.66666667  0.71364708  1.0
  Ti  Ti1881  1  0.15151515  0.74358974  0.71364708  1.0
  Ti  Ti1882  1  0.15151515  0.82051282  0.71364708  1.0
  Ti  Ti1883  1  0.15151515  0.89743590  0.71364708  1.0
  Ti  Ti1884  1  0.15151515  0.97435897  0.71364708  1.0
  Ti  Ti1885  1  0.24242424  0.05128205  0.71364708  1.0
  Ti  Ti1886  1  0.24242424  0.12820513  0.71364708  1.0
  Ti  Ti1887  1  0.24242424  0.20512821  0.71364708  1.0
  Ti  Ti1888  1  0.24242424  0.28205128  0.71364708  1.0
  Ti  Ti1889  1  0.24242424  0.35897436  0.71364708  1.0
  Ti  Ti1890  1  0.24242424  0.43589744  0.71364708  1.0
  Ti  Ti1891  1  0.24242424  0.51282051  0.71364708  1.0
  Ti  Ti1892  1  0.24242424  0.58974359  0.71364708  1.0
  Ti  Ti1893  1  0.24242424  0.66666667  0.71364708  1.0
  Ti  Ti1894  1  0.24242424  0.74358974  0.71364708  1.0
  Ti  Ti1895  1  0.24242424  0.82051282  0.71364708  1.0
  Ti  Ti1896  1  0.24242424  0.89743590  0.71364708  1.0
  Ti  Ti1897  1  0.24242424  0.97435897  0.71364708  1.0
  Ti  Ti1898  1  0.33333333  0.05128205  0.71364708  1.0
  Ti  Ti1899  1  0.33333333  0.12820513  0.71364708  1.0
  Ti  Ti1900  1  0.33333333  0.20512821  0.71364708  1.0
  Ti  Ti1901  1  0.33333333  0.28205128  0.71364708  1.0
  Ti  Ti1902  1  0.33333333  0.35897436  0.71364708  1.0
  Ti  Ti1903  1  0.33333333  0.43589744  0.71364708  1.0
  Ti  Ti1904  1  0.33333333  0.51282051  0.71364708  1.0
  Ti  Ti1905  1  0.33333333  0.58974359  0.71364708  1.0
  Ti  Ti1906  1  0.33333333  0.66666667  0.71364708  1.0
  Ti  Ti1907  1  0.33333333  0.74358974  0.71364708  1.0
  Ti  Ti1908  1  0.33333333  0.82051282  0.71364708  1.0
  Ti  Ti1909  1  0.33333333  0.89743590  0.71364708  1.0
  Ti  Ti1910  1  0.33333333  0.97435897  0.71364708  1.0
  Ti  Ti1911  1  0.42424242  0.05128205  0.71364708  1.0
  Ti  Ti1912  1  0.42424242  0.12820513  0.71364708  1.0
  Ti  Ti1913  1  0.42424242  0.20512821  0.71364708  1.0
  Ti  Ti1914  1  0.42424242  0.28205128  0.71364708  1.0
  Ti  Ti1915  1  0.42424242  0.35897436  0.71364708  1.0
  Ti  Ti1916  1  0.42424242  0.43589744  0.71364708  1.0
  Ti  Ti1917  1  0.42424242  0.51282051  0.71364708  1.0
  Ti  Ti1918  1  0.42424242  0.58974359  0.71364708  1.0
  Ti  Ti1919  1  0.42424242  0.66666667  0.71364708  1.0
  Ti  Ti1920  1  0.42424242  0.74358974  0.71364708  1.0
  Ti  Ti1921  1  0.42424242  0.82051282  0.71364708  1.0
  Ti  Ti1922  1  0.42424242  0.89743590  0.71364708  1.0
  Ti  Ti1923  1  0.42424242  0.97435897  0.71364708  1.0
  Ti  Ti1924  1  0.51515152  0.05128205  0.71364708  1.0
  Ti  Ti1925  1  0.51515152  0.12820513  0.71364708  1.0
  Ti  Ti1926  1  0.51515152  0.20512821  0.71364708  1.0
  Ti  Ti1927  1  0.51515152  0.28205128  0.71364708  1.0
  Ti  Ti1928  1  0.51515152  0.35897436  0.71364708  1.0
  Ti  Ti1929  1  0.51515152  0.43589744  0.71364708  1.0
  Ti  Ti1930  1  0.51515152  0.51282051  0.71364708  1.0
  Ti  Ti1931  1  0.51515152  0.58974359  0.71364708  1.0
  Ti  Ti1932  1  0.51515152  0.66666667  0.71364708  1.0
  Ti  Ti1933  1  0.51515152  0.74358974  0.71364708  1.0
  Ti  Ti1934  1  0.51515152  0.82051282  0.71364708  1.0
  Ti  Ti1935  1  0.51515152  0.89743590  0.71364708  1.0
  Ti  Ti1936  1  0.51515152  0.97435897  0.71364708  1.0
  Ti  Ti1937  1  0.60606061  0.05128205  0.71364708  1.0
  Ti  Ti1938  1  0.60606061  0.12820513  0.71364708  1.0
  Ti  Ti1939  1  0.60606061  0.20512821  0.71364708  1.0
  Ti  Ti1940  1  0.60606061  0.28205128  0.71364708  1.0
  Ti  Ti1941  1  0.60606061  0.35897436  0.71364708  1.0
  Ti  Ti1942  1  0.60606061  0.43589744  0.71364708  1.0
  Ti  Ti1943  1  0.60606061  0.51282051  0.71364708  1.0
  Ti  Ti1944  1  0.60606061  0.58974359  0.71364708  1.0
  Ti  Ti1945  1  0.60606061  0.66666667  0.71364708  1.0
  Ti  Ti1946  1  0.60606061  0.74358974  0.71364708  1.0
  Ti  Ti1947  1  0.60606061  0.82051282  0.71364708  1.0
  Ti  Ti1948  1  0.60606061  0.89743590  0.71364708  1.0
  Ti  Ti1949  1  0.60606061  0.97435897  0.71364708  1.0
  Ti  Ti1950  1  0.69696970  0.05128205  0.71364708  1.0
  Ti  Ti1951  1  0.69696970  0.12820513  0.71364708  1.0
  Ti  Ti1952  1  0.69696970  0.20512821  0.71364708  1.0
  Ti  Ti1953  1  0.69696970  0.28205128  0.71364708  1.0
  Ti  Ti1954  1  0.69696970  0.35897436  0.71364708  1.0
  Ti  Ti1955  1  0.69696970  0.43589744  0.71364708  1.0
  Ti  Ti1956  1  0.69696970  0.51282051  0.71364708  1.0
  Ti  Ti1957  1  0.69696970  0.58974359  0.71364708  1.0
  Ti  Ti1958  1  0.69696970  0.66666667  0.71364708  1.0
  Ti  Ti1959  1  0.69696970  0.74358974  0.71364708  1.0
  Ti  Ti1960  1  0.69696970  0.82051282  0.71364708  1.0
  Ti  Ti1961  1  0.69696970  0.89743590  0.71364708  1.0
  Ti  Ti1962  1  0.69696970  0.97435897  0.71364708  1.0
  Ti  Ti1963  1  0.78787879  0.05128205  0.71364708  1.0
  Ti  Ti1964  1  0.78787879  0.12820513  0.71364708  1.0
  Ti  Ti1965  1  0.78787879  0.20512821  0.71364708  1.0
  Ti  Ti1966  1  0.78787879  0.28205128  0.71364708  1.0
  Ti  Ti1967  1  0.78787879  0.35897436  0.71364708  1.0
  Ti  Ti1968  1  0.78787879  0.43589744  0.71364708  1.0
  Ti  Ti1969  1  0.78787879  0.51282051  0.71364708  1.0
  Ti  Ti1970  1  0.78787879  0.58974359  0.71364708  1.0
  Ti  Ti1971  1  0.78787879  0.66666667  0.71364708  1.0
  Ti  Ti1972  1  0.78787879  0.74358974  0.71364708  1.0
  Ti  Ti1973  1  0.78787879  0.82051282  0.71364708  1.0
  Ti  Ti1974  1  0.78787879  0.89743590  0.71364708  1.0
  Ti  Ti1975  1  0.78787879  0.97435897  0.71364708  1.0
  Ti  Ti1976  1  0.87878788  0.05128205  0.71364708  1.0
  Ti  Ti1977  1  0.87878788  0.12820513  0.71364708  1.0
  Ti  Ti1978  1  0.87878788  0.20512821  0.71364708  1.0
  Ti  Ti1979  1  0.87878788  0.28205128  0.71364708  1.0
  Ti  Ti1980  1  0.87878788  0.35897436  0.71364708  1.0
  Ti  Ti1981  1  0.87878788  0.43589744  0.71364708  1.0
  Ti  Ti1982  1  0.87878788  0.51282051  0.71364708  1.0
  Ti  Ti1983  1  0.87878788  0.58974359  0.71364708  1.0
  Ti  Ti1984  1  0.87878788  0.66666667  0.71364708  1.0
  Ti  Ti1985  1  0.87878788  0.74358974  0.71364708  1.0
  Ti  Ti1986  1  0.87878788  0.82051282  0.71364708  1.0
  Ti  Ti1987  1  0.87878788  0.89743590  0.71364708  1.0
  Ti  Ti1988  1  0.87878788  0.97435897  0.71364708  1.0
  Ti  Ti1989  1  0.96969697  0.05128205  0.71364708  1.0
  Ti  Ti1990  1  0.96969697  0.12820513  0.71364708  1.0
  Ti  Ti1991  1  0.96969697  0.20512821  0.71364708  1.0
  Ti  Ti1992  1  0.96969697  0.28205128  0.71364708  1.0
  Ti  Ti1993  1  0.96969697  0.35897436  0.71364708  1.0
  Ti  Ti1994  1  0.96969697  0.43589744  0.71364708  1.0
  Ti  Ti1995  1  0.96969697  0.51282051  0.71364708  1.0
  Ti  Ti1996  1  0.96969697  0.58974359  0.71364708  1.0
  Ti  Ti1997  1  0.96969697  0.66666667  0.71364708  1.0
  Ti  Ti1998  1  0.96969697  0.74358974  0.71364708  1.0
  Ti  Ti1999  1  0.96969697  0.82051282  0.71364708  1.0
  Ti  Ti2000  1  0.96969697  0.89743590  0.71364708  1.0
  Ti  Ti2001  1  0.96969697  0.97435897  0.71364708  1.0
  Ti  Ti2002  1  0.00000000  0.00000000  0.68031375  1.0
  Ti  Ti2003  1  0.00000000  0.07692308  0.68031375  1.0
  Ti  Ti2004  1  0.00000000  0.15384615  0.68031375  1.0
  Ti  Ti2005  1  0.00000000  0.23076923  0.68031375  1.0
  Ti  Ti2006  1  0.00000000  0.30769231  0.68031375  1.0
  Ti  Ti2007  1  0.00000000  0.38461538  0.68031375  1.0
  Ti  Ti2008  1  0.00000000  0.46153846  0.68031375  1.0
  Ti  Ti2009  1  0.00000000  0.53846154  0.68031375  1.0
  Ti  Ti2010  1  0.00000000  0.61538462  0.68031375  1.0
  Ti  Ti2011  1  0.00000000  0.69230769  0.68031375  1.0
  Ti  Ti2012  1  0.00000000  0.76923077  0.68031375  1.0
  Ti  Ti2013  1  0.00000000  0.84615385  0.68031375  1.0
  Ti  Ti2014  1  0.00000000  0.92307692  0.68031375  1.0
  Ti  Ti2015  1  0.09090909  0.00000000  0.68031375  1.0
  Ti  Ti2016  1  0.09090909  0.07692308  0.68031375  1.0
  Ti  Ti2017  1  0.09090909  0.15384615  0.68031375  1.0
  Ti  Ti2018  1  0.09090909  0.23076923  0.68031375  1.0
  Ti  Ti2019  1  0.09090909  0.30769231  0.68031375  1.0
  Ti  Ti2020  1  0.09090909  0.38461538  0.68031375  1.0
  Ti  Ti2021  1  0.09090909  0.46153846  0.68031375  1.0
  Ti  Ti2022  1  0.09090909  0.53846154  0.68031375  1.0
  Ti  Ti2023  1  0.09090909  0.61538462  0.68031375  1.0
  Ti  Ti2024  1  0.09090909  0.69230769  0.68031375  1.0
  Ti  Ti2025  1  0.09090909  0.76923077  0.68031375  1.0
  Ti  Ti2026  1  0.09090909  0.84615385  0.68031375  1.0
  Ti  Ti2027  1  0.09090909  0.92307692  0.68031375  1.0
  Ti  Ti2028  1  0.18181818  0.00000000  0.68031375  1.0
  Ti  Ti2029  1  0.18181818  0.07692308  0.68031375  1.0
  Ti  Ti2030  1  0.18181818  0.15384615  0.68031375  1.0
  Ti  Ti2031  1  0.18181818  0.23076923  0.68031375  1.0
  Ti  Ti2032  1  0.18181818  0.30769231  0.68031375  1.0
  Ti  Ti2033  1  0.18181818  0.38461538  0.68031375  1.0
  Ti  Ti2034  1  0.18181818  0.46153846  0.68031375  1.0
  Ti  Ti2035  1  0.18181818  0.53846154  0.68031375  1.0
  Ti  Ti2036  1  0.18181818  0.61538462  0.68031375  1.0
  Ti  Ti2037  1  0.18181818  0.69230769  0.68031375  1.0
  Ti  Ti2038  1  0.18181818  0.76923077  0.68031375  1.0
  Ti  Ti2039  1  0.18181818  0.84615385  0.68031375  1.0
  Ti  Ti2040  1  0.18181818  0.92307692  0.68031375  1.0
  Ti  Ti2041  1  0.27272727  0.00000000  0.68031375  1.0
  Ti  Ti2042  1  0.27272727  0.07692308  0.68031375  1.0
  Ti  Ti2043  1  0.27272727  0.15384615  0.68031375  1.0
  Ti  Ti2044  1  0.27272727  0.23076923  0.68031375  1.0
  Ti  Ti2045  1  0.27272727  0.30769231  0.68031375  1.0
  Ti  Ti2046  1  0.27272727  0.38461538  0.68031375  1.0
  Ti  Ti2047  1  0.27272727  0.46153846  0.68031375  1.0
  Ti  Ti2048  1  0.27272727  0.53846154  0.68031375  1.0
  Ti  Ti2049  1  0.27272727  0.61538462  0.68031375  1.0
  Ti  Ti2050  1  0.27272727  0.69230769  0.68031375  1.0
  Ti  Ti2051  1  0.27272727  0.76923077  0.68031375  1.0
  Ti  Ti2052  1  0.27272727  0.84615385  0.68031375  1.0
  Ti  Ti2053  1  0.27272727  0.92307692  0.68031375  1.0
  Ti  Ti2054  1  0.36363636  0.00000000  0.68031375  1.0
  Ti  Ti2055  1  0.36363636  0.07692308  0.68031375  1.0
  Ti  Ti2056  1  0.36363636  0.15384615  0.68031375  1.0
  Ti  Ti2057  1  0.36363636  0.23076923  0.68031375  1.0
  Ti  Ti2058  1  0.36363636  0.30769231  0.68031375  1.0
  Ti  Ti2059  1  0.36363636  0.38461538  0.68031375  1.0
  Ti  Ti2060  1  0.36363636  0.46153846  0.68031375  1.0
  Ti  Ti2061  1  0.36363636  0.53846154  0.68031375  1.0
  Ti  Ti2062  1  0.36363636  0.61538462  0.68031375  1.0
  Ti  Ti2063  1  0.36363636  0.69230769  0.68031375  1.0
  Ti  Ti2064  1  0.36363636  0.76923077  0.68031375  1.0
  Ti  Ti2065  1  0.36363636  0.84615385  0.68031375  1.0
  Ti  Ti2066  1  0.36363636  0.92307692  0.68031375  1.0
  Ti  Ti2067  1  0.45454545  0.00000000  0.68031375  1.0
  Ti  Ti2068  1  0.45454545  0.07692308  0.68031375  1.0
  Ti  Ti2069  1  0.45454545  0.15384615  0.68031375  1.0
  Ti  Ti2070  1  0.45454545  0.23076923  0.68031375  1.0
  Ti  Ti2071  1  0.45454545  0.30769231  0.68031375  1.0
  Ti  Ti2072  1  0.45454545  0.38461538  0.68031375  1.0
  Ti  Ti2073  1  0.45454545  0.46153846  0.68031375  1.0
  Ti  Ti2074  1  0.45454545  0.53846154  0.68031375  1.0
  Ti  Ti2075  1  0.45454545  0.61538462  0.68031375  1.0
  Ti  Ti2076  1  0.45454545  0.69230769  0.68031375  1.0
  Ti  Ti2077  1  0.45454545  0.76923077  0.68031375  1.0
  Ti  Ti2078  1  0.45454545  0.84615385  0.68031375  1.0
  Ti  Ti2079  1  0.45454545  0.92307692  0.68031375  1.0
  Ti  Ti2080  1  0.54545455  0.00000000  0.68031375  1.0
  Ti  Ti2081  1  0.54545455  0.07692308  0.68031375  1.0
  Ti  Ti2082  1  0.54545455  0.15384615  0.68031375  1.0
  Ti  Ti2083  1  0.54545455  0.23076923  0.68031375  1.0
  Ti  Ti2084  1  0.54545455  0.30769231  0.68031375  1.0
  Ti  Ti2085  1  0.54545455  0.38461538  0.68031375  1.0
  Ti  Ti2086  1  0.54545455  0.46153846  0.68031375  1.0
  Ti  Ti2087  1  0.54545455  0.53846154  0.68031375  1.0
  Ti  Ti2088  1  0.54545455  0.61538462  0.68031375  1.0
  Ti  Ti2089  1  0.54545455  0.69230769  0.68031375  1.0
  Ti  Ti2090  1  0.54545455  0.76923077  0.68031375  1.0
  Ti  Ti2091  1  0.54545455  0.84615385  0.68031375  1.0
  Ti  Ti2092  1  0.54545455  0.92307692  0.68031375  1.0
  Ti  Ti2093  1  0.63636364  0.00000000  0.68031375  1.0
  Ti  Ti2094  1  0.63636364  0.07692308  0.68031375  1.0
  Ti  Ti2095  1  0.63636364  0.15384615  0.68031375  1.0
  Ti  Ti2096  1  0.63636364  0.23076923  0.68031375  1.0
  Ti  Ti2097  1  0.63636364  0.30769231  0.68031375  1.0
  Ti  Ti2098  1  0.63636364  0.38461538  0.68031375  1.0
  Ti  Ti2099  1  0.63636364  0.46153846  0.68031375  1.0
  Ti  Ti2100  1  0.63636364  0.53846154  0.68031375  1.0
  Ti  Ti2101  1  0.63636364  0.61538462  0.68031375  1.0
  Ti  Ti2102  1  0.63636364  0.69230769  0.68031375  1.0
  Ti  Ti2103  1  0.63636364  0.76923077  0.68031375  1.0
  Ti  Ti2104  1  0.63636364  0.84615385  0.68031375  1.0
  Ti  Ti2105  1  0.63636364  0.92307692  0.68031375  1.0
  Ti  Ti2106  1  0.72727273  0.00000000  0.68031375  1.0
  Ti  Ti2107  1  0.72727273  0.07692308  0.68031375  1.0
  Ti  Ti2108  1  0.72727273  0.15384615  0.68031375  1.0
  Ti  Ti2109  1  0.72727273  0.23076923  0.68031375  1.0
  Ti  Ti2110  1  0.72727273  0.30769231  0.68031375  1.0
  Ti  Ti2111  1  0.72727273  0.38461538  0.68031375  1.0
  Ti  Ti2112  1  0.72727273  0.46153846  0.68031375  1.0
  Ti  Ti2113  1  0.72727273  0.53846154  0.68031375  1.0
  Ti  Ti2114  1  0.72727273  0.61538462  0.68031375  1.0
  Ti  Ti2115  1  0.72727273  0.69230769  0.68031375  1.0
  Ti  Ti2116  1  0.72727273  0.76923077  0.68031375  1.0
  Ti  Ti2117  1  0.72727273  0.84615385  0.68031375  1.0
  Ti  Ti2118  1  0.72727273  0.92307692  0.68031375  1.0
  Ti  Ti2119  1  0.81818182  0.00000000  0.68031375  1.0
  Ti  Ti2120  1  0.81818182  0.07692308  0.68031375  1.0
  Ti  Ti2121  1  0.81818182  0.15384615  0.68031375  1.0
  Ti  Ti2122  1  0.81818182  0.23076923  0.68031375  1.0
  Ti  Ti2123  1  0.81818182  0.30769231  0.68031375  1.0
  Ti  Ti2124  1  0.81818182  0.38461538  0.68031375  1.0
  Ti  Ti2125  1  0.81818182  0.46153846  0.68031375  1.0
  Ti  Ti2126  1  0.81818182  0.53846154  0.68031375  1.0
  Ti  Ti2127  1  0.81818182  0.61538462  0.68031375  1.0
  Ti  Ti2128  1  0.81818182  0.69230769  0.68031375  1.0
  Ti  Ti2129  1  0.81818182  0.76923077  0.68031375  1.0
  Ti  Ti2130  1  0.81818182  0.84615385  0.68031375  1.0
  Ti  Ti2131  1  0.81818182  0.92307692  0.68031375  1.0
  Ti  Ti2132  1  0.90909091  0.00000000  0.68031375  1.0
  Ti  Ti2133  1  0.90909091  0.07692308  0.68031375  1.0
  Ti  Ti2134  1  0.90909091  0.15384615  0.68031375  1.0
  Ti  Ti2135  1  0.90909091  0.23076923  0.68031375  1.0
  Ti  Ti2136  1  0.90909091  0.30769231  0.68031375  1.0
  Ti  Ti2137  1  0.90909091  0.38461538  0.68031375  1.0
  Ti  Ti2138  1  0.90909091  0.46153846  0.68031375  1.0
  Ti  Ti2139  1  0.90909091  0.53846154  0.68031375  1.0
  Ti  Ti2140  1  0.90909091  0.61538462  0.68031375  1.0
  Ti  Ti2141  1  0.90909091  0.69230769  0.68031375  1.0
  Ti  Ti2142  1  0.90909091  0.76923077  0.68031375  1.0
  Ti  Ti2143  1  0.90909091  0.84615385  0.68031375  1.0
  Ti  Ti2144  1  0.90909091  0.92307692  0.68031375  1.0
  Ti  Ti2145  1  0.03030303  0.02564103  0.74698042  1.0
  Ti  Ti2146  1  0.03030303  0.10256410  0.74698042  1.0
  Ti  Ti2147  1  0.03030303  0.17948718  0.74698042  1.0
  Ti  Ti2148  1  0.03030303  0.25641026  0.74698042  1.0
  Ti  Ti2149  1  0.03030303  0.33333333  0.74698042  1.0
  Ti  Ti2150  1  0.03030303  0.41025641  0.74698042  1.0
  Ti  Ti2151  1  0.03030303  0.48717949  0.74698042  1.0
  Ti  Ti2152  1  0.03030303  0.56410256  0.74698042  1.0
  Ti  Ti2153  1  0.03030303  0.64102564  0.74698042  1.0
  Ti  Ti2154  1  0.03030303  0.71794872  0.74698042  1.0
  Ti  Ti2155  1  0.03030303  0.79487179  0.74698042  1.0
  Ti  Ti2156  1  0.03030303  0.87179487  0.74698042  1.0
  Ti  Ti2157  1  0.03030303  0.94871795  0.74698042  1.0
  Ti  Ti2158  1  0.12121212  0.02564103  0.74698042  1.0
  Ti  Ti2159  1  0.12121212  0.10256410  0.74698042  1.0
  Ti  Ti2160  1  0.12121212  0.17948718  0.74698042  1.0
  Ti  Ti2161  1  0.12121212  0.25641026  0.74698042  1.0
  Ti  Ti2162  1  0.12121212  0.33333333  0.74698042  1.0
  Ti  Ti2163  1  0.12121212  0.41025641  0.74698042  1.0
  Ti  Ti2164  1  0.12121212  0.48717949  0.74698042  1.0
  Ti  Ti2165  1  0.12121212  0.56410256  0.74698042  1.0
  Ti  Ti2166  1  0.12121212  0.64102564  0.74698042  1.0
  Ti  Ti2167  1  0.12121212  0.71794872  0.74698042  1.0
  Ti  Ti2168  1  0.12121212  0.79487179  0.74698042  1.0
  Ti  Ti2169  1  0.12121212  0.87179487  0.74698042  1.0
  Ti  Ti2170  1  0.12121212  0.94871795  0.74698042  1.0
  Ti  Ti2171  1  0.21212121  0.02564103  0.74698042  1.0
  Ti  Ti2172  1  0.21212121  0.10256410  0.74698042  1.0
  Ti  Ti2173  1  0.21212121  0.17948718  0.74698042  1.0
  Ti  Ti2174  1  0.21212121  0.25641026  0.74698042  1.0
  Ti  Ti2175  1  0.21212121  0.33333333  0.74698042  1.0
  Ti  Ti2176  1  0.21212121  0.41025641  0.74698042  1.0
  Ti  Ti2177  1  0.21212121  0.48717949  0.74698042  1.0
  Ti  Ti2178  1  0.21212121  0.56410256  0.74698042  1.0
  Ti  Ti2179  1  0.21212121  0.64102564  0.74698042  1.0
  Ti  Ti2180  1  0.21212121  0.71794872  0.74698042  1.0
  Ti  Ti2181  1  0.21212121  0.79487179  0.74698042  1.0
  Ti  Ti2182  1  0.21212121  0.87179487  0.74698042  1.0
  Ti  Ti2183  1  0.21212121  0.94871795  0.74698042  1.0
  Ti  Ti2184  1  0.30303030  0.02564103  0.74698042  1.0
  Ti  Ti2185  1  0.30303030  0.10256410  0.74698042  1.0
  Ti  Ti2186  1  0.30303030  0.17948718  0.74698042  1.0
  Ti  Ti2187  1  0.30303030  0.25641026  0.74698042  1.0
  Ti  Ti2188  1  0.30303030  0.33333333  0.74698042  1.0
  Ti  Ti2189  1  0.30303030  0.41025641  0.74698042  1.0
  Ti  Ti2190  1  0.30303030  0.48717949  0.74698042  1.0
  Ti  Ti2191  1  0.30303030  0.56410256  0.74698042  1.0
  Ti  Ti2192  1  0.30303030  0.64102564  0.74698042  1.0
  Ti  Ti2193  1  0.30303030  0.71794872  0.74698042  1.0
  Ti  Ti2194  1  0.30303030  0.79487179  0.74698042  1.0
  Ti  Ti2195  1  0.30303030  0.87179487  0.74698042  1.0
  Ti  Ti2196  1  0.30303030  0.94871795  0.74698042  1.0
  Ti  Ti2197  1  0.39393939  0.02564103  0.74698042  1.0
  Ti  Ti2198  1  0.39393939  0.10256410  0.74698042  1.0
  Ti  Ti2199  1  0.39393939  0.17948718  0.74698042  1.0
  Ti  Ti2200  1  0.39393939  0.25641026  0.74698042  1.0
  Ti  Ti2201  1  0.39393939  0.33333333  0.74698042  1.0
  Ti  Ti2202  1  0.39393939  0.41025641  0.74698042  1.0
  Ti  Ti2203  1  0.39393939  0.48717949  0.74698042  1.0
  Ti  Ti2204  1  0.39393939  0.56410256  0.74698042  1.0
  Ti  Ti2205  1  0.39393939  0.64102564  0.74698042  1.0
  Ti  Ti2206  1  0.39393939  0.71794872  0.74698042  1.0
  Ti  Ti2207  1  0.39393939  0.79487179  0.74698042  1.0
  Ti  Ti2208  1  0.39393939  0.87179487  0.74698042  1.0
  Ti  Ti2209  1  0.39393939  0.94871795  0.74698042  1.0
  Ti  Ti2210  1  0.48484848  0.02564103  0.74698042  1.0
  Ti  Ti2211  1  0.48484848  0.10256410  0.74698042  1.0
  Ti  Ti2212  1  0.48484848  0.17948718  0.74698042  1.0
  Ti  Ti2213  1  0.48484848  0.25641026  0.74698042  1.0
  Ti  Ti2214  1  0.48484848  0.33333333  0.74698042  1.0
  Ti  Ti2215  1  0.48484848  0.41025641  0.74698042  1.0
  Ti  Ti2216  1  0.48484848  0.48717949  0.74698042  1.0
  Ti  Ti2217  1  0.48484848  0.56410256  0.74698042  1.0
  Ti  Ti2218  1  0.48484848  0.64102564  0.74698042  1.0
  Ti  Ti2219  1  0.48484848  0.71794872  0.74698042  1.0
  Ti  Ti2220  1  0.48484848  0.79487179  0.74698042  1.0
  Ti  Ti2221  1  0.48484848  0.87179487  0.74698042  1.0
  Ti  Ti2222  1  0.48484848  0.94871795  0.74698042  1.0
  Ti  Ti2223  1  0.57575758  0.02564103  0.74698042  1.0
  Ti  Ti2224  1  0.57575758  0.10256410  0.74698042  1.0
  Ti  Ti2225  1  0.57575758  0.17948718  0.74698042  1.0
  Ti  Ti2226  1  0.57575758  0.25641026  0.74698042  1.0
  Ti  Ti2227  1  0.57575758  0.33333333  0.74698042  1.0
  Ti  Ti2228  1  0.57575758  0.41025641  0.74698042  1.0
  Ti  Ti2229  1  0.57575758  0.48717949  0.74698042  1.0
  Ti  Ti2230  1  0.57575758  0.56410256  0.74698042  1.0
  Ti  Ti2231  1  0.57575758  0.64102564  0.74698042  1.0
  Ti  Ti2232  1  0.57575758  0.71794872  0.74698042  1.0
  Ti  Ti2233  1  0.57575758  0.79487179  0.74698042  1.0
  Ti  Ti2234  1  0.57575758  0.87179487  0.74698042  1.0
  Ti  Ti2235  1  0.57575758  0.94871795  0.74698042  1.0
  Ti  Ti2236  1  0.66666667  0.02564103  0.74698042  1.0
  Ti  Ti2237  1  0.66666667  0.10256410  0.74698042  1.0
  Ti  Ti2238  1  0.66666667  0.17948718  0.74698042  1.0
  Ti  Ti2239  1  0.66666667  0.25641026  0.74698042  1.0
  Ti  Ti2240  1  0.66666667  0.33333333  0.74698042  1.0
  Ti  Ti2241  1  0.66666667  0.41025641  0.74698042  1.0
  Ti  Ti2242  1  0.66666667  0.48717949  0.74698042  1.0
  Ti  Ti2243  1  0.66666667  0.56410256  0.74698042  1.0
  Ti  Ti2244  1  0.66666667  0.64102564  0.74698042  1.0
  Ti  Ti2245  1  0.66666667  0.71794872  0.74698042  1.0
  Ti  Ti2246  1  0.66666667  0.79487179  0.74698042  1.0
  Ti  Ti2247  1  0.66666667  0.87179487  0.74698042  1.0
  Ti  Ti2248  1  0.66666667  0.94871795  0.74698042  1.0
  Ti  Ti2249  1  0.75757576  0.02564103  0.74698042  1.0
  Ti  Ti2250  1  0.75757576  0.10256410  0.74698042  1.0
  Ti  Ti2251  1  0.75757576  0.17948718  0.74698042  1.0
  Ti  Ti2252  1  0.75757576  0.25641026  0.74698042  1.0
  Ti  Ti2253  1  0.75757576  0.33333333  0.74698042  1.0
  Ti  Ti2254  1  0.75757576  0.41025641  0.74698042  1.0
  Ti  Ti2255  1  0.75757576  0.48717949  0.74698042  1.0
  Ti  Ti2256  1  0.75757576  0.56410256  0.74698042  1.0
  Ti  Ti2257  1  0.75757576  0.64102564  0.74698042  1.0
  Ti  Ti2258  1  0.75757576  0.71794872  0.74698042  1.0
  Ti  Ti2259  1  0.75757576  0.79487179  0.74698042  1.0
  Ti  Ti2260  1  0.75757576  0.87179487  0.74698042  1.0
  Ti  Ti2261  1  0.75757576  0.94871795  0.74698042  1.0
  Ti  Ti2262  1  0.84848485  0.02564103  0.74698042  1.0
  Ti  Ti2263  1  0.84848485  0.10256410  0.74698042  1.0
  Ti  Ti2264  1  0.84848485  0.17948718  0.74698042  1.0
  Ti  Ti2265  1  0.84848485  0.25641026  0.74698042  1.0
  Ti  Ti2266  1  0.84848485  0.33333333  0.74698042  1.0
  Ti  Ti2267  1  0.84848485  0.41025641  0.74698042  1.0
  Ti  Ti2268  1  0.84848485  0.48717949  0.74698042  1.0
  Ti  Ti2269  1  0.84848485  0.56410256  0.74698042  1.0
  Ti  Ti2270  1  0.84848485  0.64102564  0.74698042  1.0
  Ti  Ti2271  1  0.84848485  0.71794872  0.74698042  1.0
  Ti  Ti2272  1  0.84848485  0.79487179  0.74698042  1.0
  Ti  Ti2273  1  0.84848485  0.87179487  0.74698042  1.0
  Ti  Ti2274  1  0.84848485  0.94871795  0.74698042  1.0
  Ti  Ti2275  1  0.93939394  0.02564103  0.74698042  1.0
  Ti  Ti2276  1  0.93939394  0.10256410  0.74698042  1.0
  Ti  Ti2277  1  0.93939394  0.17948718  0.74698042  1.0
  Ti  Ti2278  1  0.93939394  0.25641026  0.74698042  1.0
  Ti  Ti2279  1  0.93939394  0.33333333  0.74698042  1.0
  Ti  Ti2280  1  0.93939394  0.41025641  0.74698042  1.0
  Ti  Ti2281  1  0.93939394  0.48717949  0.74698042  1.0
  Ti  Ti2282  1  0.93939394  0.56410256  0.74698042  1.0
  Ti  Ti2283  1  0.93939394  0.64102564  0.74698042  1.0
  Ti  Ti2284  1  0.93939394  0.71794872  0.74698042  1.0
  Ti  Ti2285  1  0.93939394  0.79487179  0.74698042  1.0
  Ti  Ti2286  1  0.93939394  0.87179487  0.74698042  1.0
  Ti  Ti2287  1  0.93939394  0.94871795  0.74698042  1.0
  Ti  Ti2288  1  0.06060606  0.05128205  0.61364708  1.0
  Ti  Ti2289  1  0.06060606  0.12820513  0.61364708  1.0
  Ti  Ti2290  1  0.06060606  0.20512821  0.61364708  1.0
  Ti  Ti2291  1  0.06060606  0.28205128  0.61364708  1.0
  Ti  Ti2292  1  0.06060606  0.35897436  0.61364708  1.0
  Ti  Ti2293  1  0.06060606  0.43589744  0.61364708  1.0
  Ti  Ti2294  1  0.06060606  0.51282051  0.61364708  1.0
  Ti  Ti2295  1  0.06060606  0.58974359  0.61364708  1.0
  Ti  Ti2296  1  0.06060606  0.66666667  0.61364708  1.0
  Ti  Ti2297  1  0.06060606  0.74358974  0.61364708  1.0
  Ti  Ti2298  1  0.06060606  0.82051282  0.61364708  1.0
  Ti  Ti2299  1  0.06060606  0.89743590  0.61364708  1.0
  Ti  Ti2300  1  0.06060606  0.97435897  0.61364708  1.0
  Ti  Ti2301  1  0.15151515  0.05128205  0.61364708  1.0
  Ti  Ti2302  1  0.15151515  0.12820513  0.61364708  1.0
  Ti  Ti2303  1  0.15151515  0.20512821  0.61364708  1.0
  Ti  Ti2304  1  0.15151515  0.28205128  0.61364708  1.0
  Ti  Ti2305  1  0.15151515  0.35897436  0.61364708  1.0
  Ti  Ti2306  1  0.15151515  0.43589744  0.61364708  1.0
  Ti  Ti2307  1  0.15151515  0.51282051  0.61364708  1.0
  Ti  Ti2308  1  0.15151515  0.58974359  0.61364708  1.0
  Ti  Ti2309  1  0.15151515  0.66666667  0.61364708  1.0
  Ti  Ti2310  1  0.15151515  0.74358974  0.61364708  1.0
  Ti  Ti2311  1  0.15151515  0.82051282  0.61364708  1.0
  Ti  Ti2312  1  0.15151515  0.89743590  0.61364708  1.0
  Ti  Ti2313  1  0.15151515  0.97435897  0.61364708  1.0
  Ti  Ti2314  1  0.24242424  0.05128205  0.61364708  1.0
  Ti  Ti2315  1  0.24242424  0.12820513  0.61364708  1.0
  Ti  Ti2316  1  0.24242424  0.20512821  0.61364708  1.0
  Ti  Ti2317  1  0.24242424  0.28205128  0.61364708  1.0
  Ti  Ti2318  1  0.24242424  0.35897436  0.61364708  1.0
  Ti  Ti2319  1  0.24242424  0.43589744  0.61364708  1.0
  Ti  Ti2320  1  0.24242424  0.51282051  0.61364708  1.0
  Ti  Ti2321  1  0.24242424  0.58974359  0.61364708  1.0
  Ti  Ti2322  1  0.24242424  0.66666667  0.61364708  1.0
  Ti  Ti2323  1  0.24242424  0.74358974  0.61364708  1.0
  Ti  Ti2324  1  0.24242424  0.82051282  0.61364708  1.0
  Ti  Ti2325  1  0.24242424  0.89743590  0.61364708  1.0
  Ti  Ti2326  1  0.24242424  0.97435897  0.61364708  1.0
  Ti  Ti2327  1  0.33333333  0.05128205  0.61364708  1.0
  Ti  Ti2328  1  0.33333333  0.12820513  0.61364708  1.0
  Ti  Ti2329  1  0.33333333  0.20512821  0.61364708  1.0
  Ti  Ti2330  1  0.33333333  0.28205128  0.61364708  1.0
  Ti  Ti2331  1  0.33333333  0.35897436  0.61364708  1.0
  Ti  Ti2332  1  0.33333333  0.43589744  0.61364708  1.0
  Ti  Ti2333  1  0.33333333  0.51282051  0.61364708  1.0
  Ti  Ti2334  1  0.33333333  0.58974359  0.61364708  1.0
  Ti  Ti2335  1  0.33333333  0.66666667  0.61364708  1.0
  Ti  Ti2336  1  0.33333333  0.74358974  0.61364708  1.0
  Ti  Ti2337  1  0.33333333  0.82051282  0.61364708  1.0
  Ti  Ti2338  1  0.33333333  0.89743590  0.61364708  1.0
  Ti  Ti2339  1  0.33333333  0.97435897  0.61364708  1.0
  Ti  Ti2340  1  0.42424242  0.05128205  0.61364708  1.0
  Ti  Ti2341  1  0.42424242  0.12820513  0.61364708  1.0
  Ti  Ti2342  1  0.42424242  0.20512821  0.61364708  1.0
  Ti  Ti2343  1  0.42424242  0.28205128  0.61364708  1.0
  Ti  Ti2344  1  0.42424242  0.35897436  0.61364708  1.0
  Ti  Ti2345  1  0.42424242  0.43589744  0.61364708  1.0
  Ti  Ti2346  1  0.42424242  0.51282051  0.61364708  1.0
  Ti  Ti2347  1  0.42424242  0.58974359  0.61364708  1.0
  Ti  Ti2348  1  0.42424242  0.66666667  0.61364708  1.0
  Ti  Ti2349  1  0.42424242  0.74358974  0.61364708  1.0
  Ti  Ti2350  1  0.42424242  0.82051282  0.61364708  1.0
  Ti  Ti2351  1  0.42424242  0.89743590  0.61364708  1.0
  Ti  Ti2352  1  0.42424242  0.97435897  0.61364708  1.0
  Ti  Ti2353  1  0.51515152  0.05128205  0.61364708  1.0
  Ti  Ti2354  1  0.51515152  0.12820513  0.61364708  1.0
  Ti  Ti2355  1  0.51515152  0.20512821  0.61364708  1.0
  Ti  Ti2356  1  0.51515152  0.28205128  0.61364708  1.0
  Ti  Ti2357  1  0.51515152  0.35897436  0.61364708  1.0
  Ti  Ti2358  1  0.51515152  0.43589744  0.61364708  1.0
  Ti  Ti2359  1  0.51515152  0.51282051  0.61364708  1.0
  Ti  Ti2360  1  0.51515152  0.58974359  0.61364708  1.0
  Ti  Ti2361  1  0.51515152  0.66666667  0.61364708  1.0
  Ti  Ti2362  1  0.51515152  0.74358974  0.61364708  1.0
  Ti  Ti2363  1  0.51515152  0.82051282  0.61364708  1.0
  Ti  Ti2364  1  0.51515152  0.89743590  0.61364708  1.0
  Ti  Ti2365  1  0.51515152  0.97435897  0.61364708  1.0
  Ti  Ti2366  1  0.60606061  0.05128205  0.61364708  1.0
  Ti  Ti2367  1  0.60606061  0.12820513  0.61364708  1.0
  Ti  Ti2368  1  0.60606061  0.20512821  0.61364708  1.0
  Ti  Ti2369  1  0.60606061  0.28205128  0.61364708  1.0
  Ti  Ti2370  1  0.60606061  0.35897436  0.61364708  1.0
  Ti  Ti2371  1  0.60606061  0.43589744  0.61364708  1.0
  Ti  Ti2372  1  0.60606061  0.51282051  0.61364708  1.0
  Ti  Ti2373  1  0.60606061  0.58974359  0.61364708  1.0
  Ti  Ti2374  1  0.60606061  0.66666667  0.61364708  1.0
  Ti  Ti2375  1  0.60606061  0.74358974  0.61364708  1.0
  Ti  Ti2376  1  0.60606061  0.82051282  0.61364708  1.0
  Ti  Ti2377  1  0.60606061  0.89743590  0.61364708  1.0
  Ti  Ti2378  1  0.60606061  0.97435897  0.61364708  1.0
  Ti  Ti2379  1  0.69696970  0.05128205  0.61364708  1.0
  Ti  Ti2380  1  0.69696970  0.12820513  0.61364708  1.0
  Ti  Ti2381  1  0.69696970  0.20512821  0.61364708  1.0
  Ti  Ti2382  1  0.69696970  0.28205128  0.61364708  1.0
  Ti  Ti2383  1  0.69696970  0.35897436  0.61364708  1.0
  Ti  Ti2384  1  0.69696970  0.43589744  0.61364708  1.0
  Ti  Ti2385  1  0.69696970  0.51282051  0.61364708  1.0
  Ti  Ti2386  1  0.69696970  0.58974359  0.61364708  1.0
  Ti  Ti2387  1  0.69696970  0.66666667  0.61364708  1.0
  Ti  Ti2388  1  0.69696970  0.74358974  0.61364708  1.0
  Ti  Ti2389  1  0.69696970  0.82051282  0.61364708  1.0
  Ti  Ti2390  1  0.69696970  0.89743590  0.61364708  1.0
  Ti  Ti2391  1  0.69696970  0.97435897  0.61364708  1.0
  Ti  Ti2392  1  0.78787879  0.05128205  0.61364708  1.0
  Ti  Ti2393  1  0.78787879  0.12820513  0.61364708  1.0
  Ti  Ti2394  1  0.78787879  0.20512821  0.61364708  1.0
  Ti  Ti2395  1  0.78787879  0.28205128  0.61364708  1.0
  Ti  Ti2396  1  0.78787879  0.35897436  0.61364708  1.0
  Ti  Ti2397  1  0.78787879  0.43589744  0.61364708  1.0
  Ti  Ti2398  1  0.78787879  0.51282051  0.61364708  1.0
  Ti  Ti2399  1  0.78787879  0.58974359  0.61364708  1.0
  Ti  Ti2400  1  0.78787879  0.66666667  0.61364708  1.0
  Ti  Ti2401  1  0.78787879  0.74358974  0.61364708  1.0
  Ti  Ti2402  1  0.78787879  0.82051282  0.61364708  1.0
  Ti  Ti2403  1  0.78787879  0.89743590  0.61364708  1.0
  Ti  Ti2404  1  0.78787879  0.97435897  0.61364708  1.0
  Ti  Ti2405  1  0.87878788  0.05128205  0.61364708  1.0
  Ti  Ti2406  1  0.87878788  0.12820513  0.61364708  1.0
  Ti  Ti2407  1  0.87878788  0.20512821  0.61364708  1.0
  Ti  Ti2408  1  0.87878788  0.28205128  0.61364708  1.0
  Ti  Ti2409  1  0.87878788  0.35897436  0.61364708  1.0
  Ti  Ti2410  1  0.87878788  0.43589744  0.61364708  1.0
  Ti  Ti2411  1  0.87878788  0.51282051  0.61364708  1.0
  Ti  Ti2412  1  0.87878788  0.58974359  0.61364708  1.0
  Ti  Ti2413  1  0.87878788  0.66666667  0.61364708  1.0
  Ti  Ti2414  1  0.87878788  0.74358974  0.61364708  1.0
  Ti  Ti2415  1  0.87878788  0.82051282  0.61364708  1.0
  Ti  Ti2416  1  0.87878788  0.89743590  0.61364708  1.0
  Ti  Ti2417  1  0.87878788  0.97435897  0.61364708  1.0
  Ti  Ti2418  1  0.96969697  0.05128205  0.61364708  1.0
  Ti  Ti2419  1  0.96969697  0.12820513  0.61364708  1.0
  Ti  Ti2420  1  0.96969697  0.20512821  0.61364708  1.0
  Ti  Ti2421  1  0.96969697  0.28205128  0.61364708  1.0
  Ti  Ti2422  1  0.96969697  0.35897436  0.61364708  1.0
  Ti  Ti2423  1  0.96969697  0.43589744  0.61364708  1.0
  Ti  Ti2424  1  0.96969697  0.51282051  0.61364708  1.0
  Ti  Ti2425  1  0.96969697  0.58974359  0.61364708  1.0
  Ti  Ti2426  1  0.96969697  0.66666667  0.61364708  1.0
  Ti  Ti2427  1  0.96969697  0.74358974  0.61364708  1.0
  Ti  Ti2428  1  0.96969697  0.82051282  0.61364708  1.0
  Ti  Ti2429  1  0.96969697  0.89743590  0.61364708  1.0
  Ti  Ti2430  1  0.96969697  0.97435897  0.61364708  1.0
  F  F2431  1  0.05866895  0.01358193  0.26541863  1.0
  F  F2432  1  0.05866895  0.09050500  0.26541863  1.0
  F  F2433  1  0.05866895  0.16742808  0.26541863  1.0
  F  F2434  1  0.05866895  0.24435116  0.26541863  1.0
  F  F2435  1  0.05866895  0.32127423  0.26541863  1.0
  F  F2436  1  0.05866895  0.39819731  0.26541863  1.0
  F  F2437  1  0.05866895  0.47512039  0.26541863  1.0
  F  F2438  1  0.05866895  0.55204346  0.26541863  1.0
  F  F2439  1  0.05866895  0.62896654  0.26541863  1.0
  F  F2440  1  0.05866895  0.70588962  0.26541863  1.0
  F  F2441  1  0.05866895  0.78281270  0.26541863  1.0
  F  F2442  1  0.05866895  0.85973577  0.26541863  1.0
  F  F2443  1  0.05866895  0.93665885  0.26541863  1.0
  F  F2444  1  0.14957804  0.01358193  0.26541863  1.0
  F  F2445  1  0.14957804  0.09050500  0.26541863  1.0
  F  F2446  1  0.14957804  0.16742808  0.26541863  1.0
  F  F2447  1  0.14957804  0.24435116  0.26541863  1.0
  F  F2448  1  0.14957804  0.32127423  0.26541863  1.0
  F  F2449  1  0.14957804  0.39819731  0.26541863  1.0
  F  F2450  1  0.14957804  0.47512039  0.26541863  1.0
  F  F2451  1  0.14957804  0.55204346  0.26541863  1.0
  F  F2452  1  0.14957804  0.62896654  0.26541863  1.0
  F  F2453  1  0.14957804  0.70588962  0.26541863  1.0
  F  F2454  1  0.14957804  0.78281270  0.26541863  1.0
  F  F2455  1  0.14957804  0.85973577  0.26541863  1.0
  F  F2456  1  0.14957804  0.93665885  0.26541863  1.0
  F  F2457  1  0.24048713  0.01358193  0.26541863  1.0
  F  F2458  1  0.24048713  0.09050500  0.26541863  1.0
  F  F2459  1  0.24048713  0.16742808  0.26541863  1.0
  F  F2460  1  0.24048713  0.24435116  0.26541863  1.0
  F  F2461  1  0.24048713  0.32127423  0.26541863  1.0
  F  F2462  1  0.24048713  0.39819731  0.26541863  1.0
  F  F2463  1  0.24048713  0.47512039  0.26541863  1.0
  F  F2464  1  0.24048713  0.55204346  0.26541863  1.0
  F  F2465  1  0.24048713  0.62896654  0.26541863  1.0
  F  F2466  1  0.24048713  0.70588962  0.26541863  1.0
  F  F2467  1  0.24048713  0.78281270  0.26541863  1.0
  F  F2468  1  0.24048713  0.85973577  0.26541863  1.0
  F  F2469  1  0.24048713  0.93665885  0.26541863  1.0
  F  F2470  1  0.33139622  0.01358193  0.26541863  1.0
  F  F2471  1  0.33139622  0.09050500  0.26541863  1.0
  F  F2472  1  0.33139622  0.16742808  0.26541863  1.0
  F  F2473  1  0.33139622  0.24435116  0.26541863  1.0
  F  F2474  1  0.33139622  0.32127423  0.26541863  1.0
  F  F2475  1  0.33139622  0.39819731  0.26541863  1.0
  F  F2476  1  0.33139622  0.47512039  0.26541863  1.0
  F  F2477  1  0.33139622  0.55204346  0.26541863  1.0
  F  F2478  1  0.33139622  0.62896654  0.26541863  1.0
  F  F2479  1  0.33139622  0.70588962  0.26541863  1.0
  F  F2480  1  0.33139622  0.78281270  0.26541863  1.0
  F  F2481  1  0.33139622  0.85973577  0.26541863  1.0
  F  F2482  1  0.33139622  0.93665885  0.26541863  1.0
  F  F2483  1  0.42230531  0.01358193  0.26541863  1.0
  F  F2484  1  0.42230531  0.09050500  0.26541863  1.0
  F  F2485  1  0.42230531  0.16742808  0.26541863  1.0
  F  F2486  1  0.42230531  0.24435116  0.26541863  1.0
  F  F2487  1  0.42230531  0.32127423  0.26541863  1.0
  F  F2488  1  0.42230531  0.39819731  0.26541863  1.0
  F  F2489  1  0.42230531  0.47512039  0.26541863  1.0
  F  F2490  1  0.42230531  0.55204346  0.26541863  1.0
  F  F2491  1  0.42230531  0.62896654  0.26541863  1.0
  F  F2492  1  0.42230531  0.70588962  0.26541863  1.0
  F  F2493  1  0.42230531  0.78281270  0.26541863  1.0
  F  F2494  1  0.42230531  0.85973577  0.26541863  1.0
  F  F2495  1  0.42230531  0.93665885  0.26541863  1.0
  F  F2496  1  0.51321440  0.01358193  0.26541863  1.0
  F  F2497  1  0.51321440  0.09050500  0.26541863  1.0
  F  F2498  1  0.51321440  0.16742808  0.26541863  1.0
  F  F2499  1  0.51321440  0.24435116  0.26541863  1.0
  F  F2500  1  0.51321440  0.32127423  0.26541863  1.0
  F  F2501  1  0.51321440  0.39819731  0.26541863  1.0
  F  F2502  1  0.51321440  0.47512039  0.26541863  1.0
  F  F2503  1  0.51321440  0.55204346  0.26541863  1.0
  F  F2504  1  0.51321440  0.62896654  0.26541863  1.0
  F  F2505  1  0.51321440  0.70588962  0.26541863  1.0
  F  F2506  1  0.51321440  0.78281270  0.26541863  1.0
  F  F2507  1  0.51321440  0.85973577  0.26541863  1.0
  F  F2508  1  0.51321440  0.93665885  0.26541863  1.0
  F  F2509  1  0.60412349  0.01358193  0.26541863  1.0
  F  F2510  1  0.60412349  0.09050500  0.26541863  1.0
  F  F2511  1  0.60412349  0.16742808  0.26541863  1.0
  F  F2512  1  0.60412349  0.24435116  0.26541863  1.0
  F  F2513  1  0.60412349  0.32127423  0.26541863  1.0
  F  F2514  1  0.60412349  0.39819731  0.26541863  1.0
  F  F2515  1  0.60412349  0.47512039  0.26541863  1.0
  F  F2516  1  0.60412349  0.55204346  0.26541863  1.0
  F  F2517  1  0.60412349  0.62896654  0.26541863  1.0
  F  F2518  1  0.60412349  0.70588962  0.26541863  1.0
  F  F2519  1  0.60412349  0.78281270  0.26541863  1.0
  F  F2520  1  0.60412349  0.85973577  0.26541863  1.0
  F  F2521  1  0.60412349  0.93665885  0.26541863  1.0
  F  F2522  1  0.69503259  0.01358193  0.26541863  1.0
  F  F2523  1  0.69503259  0.09050500  0.26541863  1.0
  F  F2524  1  0.69503259  0.16742808  0.26541863  1.0
  F  F2525  1  0.69503259  0.24435116  0.26541863  1.0
  F  F2526  1  0.69503259  0.32127423  0.26541863  1.0
  F  F2527  1  0.69503259  0.39819731  0.26541863  1.0
  F  F2528  1  0.69503259  0.47512039  0.26541863  1.0
  F  F2529  1  0.69503259  0.55204346  0.26541863  1.0
  F  F2530  1  0.69503259  0.62896654  0.26541863  1.0
  F  F2531  1  0.69503259  0.70588962  0.26541863  1.0
  F  F2532  1  0.69503259  0.78281270  0.26541863  1.0
  F  F2533  1  0.69503259  0.85973577  0.26541863  1.0
  F  F2534  1  0.69503259  0.93665885  0.26541863  1.0
  F  F2535  1  0.78594168  0.01358193  0.26541863  1.0
  F  F2536  1  0.78594168  0.09050500  0.26541863  1.0
  F  F2537  1  0.78594168  0.16742808  0.26541863  1.0
  F  F2538  1  0.78594168  0.24435116  0.26541863  1.0
  F  F2539  1  0.78594168  0.32127423  0.26541863  1.0
  F  F2540  1  0.78594168  0.39819731  0.26541863  1.0
  F  F2541  1  0.78594168  0.47512039  0.26541863  1.0
  F  F2542  1  0.78594168  0.55204346  0.26541863  1.0
  F  F2543  1  0.78594168  0.62896654  0.26541863  1.0
  F  F2544  1  0.78594168  0.70588962  0.26541863  1.0
  F  F2545  1  0.78594168  0.78281270  0.26541863  1.0
  F  F2546  1  0.78594168  0.85973577  0.26541863  1.0
  F  F2547  1  0.78594168  0.93665885  0.26541863  1.0
  F  F2548  1  0.87685077  0.01358193  0.26541863  1.0
  F  F2549  1  0.87685077  0.09050500  0.26541863  1.0
  F  F2550  1  0.87685077  0.16742808  0.26541863  1.0
  F  F2551  1  0.87685077  0.24435116  0.26541863  1.0
  F  F2552  1  0.87685077  0.32127423  0.26541863  1.0
  F  F2553  1  0.87685077  0.39819731  0.26541863  1.0
  F  F2554  1  0.87685077  0.47512039  0.26541863  1.0
  F  F2555  1  0.87685077  0.55204346  0.26541863  1.0
  F  F2556  1  0.87685077  0.62896654  0.26541863  1.0
  F  F2557  1  0.87685077  0.70588962  0.26541863  1.0
  F  F2558  1  0.87685077  0.78281270  0.26541863  1.0
  F  F2559  1  0.87685077  0.85973577  0.26541863  1.0
  F  F2560  1  0.87685077  0.93665885  0.26541863  1.0
  F  F2561  1  0.96775986  0.01358193  0.26541863  1.0
  F  F2562  1  0.96775986  0.09050500  0.26541863  1.0
  F  F2563  1  0.96775986  0.16742808  0.26541863  1.0
  F  F2564  1  0.96775986  0.24435116  0.26541863  1.0
  F  F2565  1  0.96775986  0.32127423  0.26541863  1.0
  F  F2566  1  0.96775986  0.39819731  0.26541863  1.0
  F  F2567  1  0.96775986  0.47512039  0.26541863  1.0
  F  F2568  1  0.96775986  0.55204346  0.26541863  1.0
  F  F2569  1  0.96775986  0.62896654  0.26541863  1.0
  F  F2570  1  0.96775986  0.70588962  0.26541863  1.0
  F  F2571  1  0.96775986  0.78281270  0.26541863  1.0
  F  F2572  1  0.96775986  0.85973577  0.26541863  1.0
  F  F2573  1  0.96775986  0.93665885  0.26541863  1.0
  F  F2574  1  0.08897198  0.03922295  0.33208529  1.0
  F  F2575  1  0.08897198  0.11614603  0.33208529  1.0
  F  F2576  1  0.08897198  0.19306911  0.33208529  1.0
  F  F2577  1  0.08897198  0.26999218  0.33208529  1.0
  F  F2578  1  0.08897198  0.34691526  0.33208529  1.0
  F  F2579  1  0.08897198  0.42383834  0.33208529  1.0
  F  F2580  1  0.08897198  0.50076141  0.33208529  1.0
  F  F2581  1  0.08897198  0.57768449  0.33208529  1.0
  F  F2582  1  0.08897198  0.65460757  0.33208529  1.0
  F  F2583  1  0.08897198  0.73153064  0.33208529  1.0
  F  F2584  1  0.08897198  0.80845372  0.33208529  1.0
  F  F2585  1  0.08897198  0.88537680  0.33208529  1.0
  F  F2586  1  0.08897198  0.96229988  0.33208529  1.0
  F  F2587  1  0.17988107  0.03922295  0.33208529  1.0
  F  F2588  1  0.17988107  0.11614603  0.33208529  1.0
  F  F2589  1  0.17988107  0.19306911  0.33208529  1.0
  F  F2590  1  0.17988107  0.26999218  0.33208529  1.0
  F  F2591  1  0.17988107  0.34691526  0.33208529  1.0
  F  F2592  1  0.17988107  0.42383834  0.33208529  1.0
  F  F2593  1  0.17988107  0.50076141  0.33208529  1.0
  F  F2594  1  0.17988107  0.57768449  0.33208529  1.0
  F  F2595  1  0.17988107  0.65460757  0.33208529  1.0
  F  F2596  1  0.17988107  0.73153064  0.33208529  1.0
  F  F2597  1  0.17988107  0.80845372  0.33208529  1.0
  F  F2598  1  0.17988107  0.88537680  0.33208529  1.0
  F  F2599  1  0.17988107  0.96229988  0.33208529  1.0
  F  F2600  1  0.27079016  0.03922295  0.33208529  1.0
  F  F2601  1  0.27079016  0.11614603  0.33208529  1.0
  F  F2602  1  0.27079016  0.19306911  0.33208529  1.0
  F  F2603  1  0.27079016  0.26999218  0.33208529  1.0
  F  F2604  1  0.27079016  0.34691526  0.33208529  1.0
  F  F2605  1  0.27079016  0.42383834  0.33208529  1.0
  F  F2606  1  0.27079016  0.50076141  0.33208529  1.0
  F  F2607  1  0.27079016  0.57768449  0.33208529  1.0
  F  F2608  1  0.27079016  0.65460757  0.33208529  1.0
  F  F2609  1  0.27079016  0.73153064  0.33208529  1.0
  F  F2610  1  0.27079016  0.80845372  0.33208529  1.0
  F  F2611  1  0.27079016  0.88537680  0.33208529  1.0
  F  F2612  1  0.27079016  0.96229988  0.33208529  1.0
  F  F2613  1  0.36169925  0.03922295  0.33208529  1.0
  F  F2614  1  0.36169925  0.11614603  0.33208529  1.0
  F  F2615  1  0.36169925  0.19306911  0.33208529  1.0
  F  F2616  1  0.36169925  0.26999218  0.33208529  1.0
  F  F2617  1  0.36169925  0.34691526  0.33208529  1.0
  F  F2618  1  0.36169925  0.42383834  0.33208529  1.0
  F  F2619  1  0.36169925  0.50076141  0.33208529  1.0
  F  F2620  1  0.36169925  0.57768449  0.33208529  1.0
  F  F2621  1  0.36169925  0.65460757  0.33208529  1.0
  F  F2622  1  0.36169925  0.73153064  0.33208529  1.0
  F  F2623  1  0.36169925  0.80845372  0.33208529  1.0
  F  F2624  1  0.36169925  0.88537680  0.33208529  1.0
  F  F2625  1  0.36169925  0.96229988  0.33208529  1.0
  F  F2626  1  0.45260834  0.03922295  0.33208529  1.0
  F  F2627  1  0.45260834  0.11614603  0.33208529  1.0
  F  F2628  1  0.45260834  0.19306911  0.33208529  1.0
  F  F2629  1  0.45260834  0.26999218  0.33208529  1.0
  F  F2630  1  0.45260834  0.34691526  0.33208529  1.0
  F  F2631  1  0.45260834  0.42383834  0.33208529  1.0
  F  F2632  1  0.45260834  0.50076141  0.33208529  1.0
  F  F2633  1  0.45260834  0.57768449  0.33208529  1.0
  F  F2634  1  0.45260834  0.65460757  0.33208529  1.0
  F  F2635  1  0.45260834  0.73153064  0.33208529  1.0
  F  F2636  1  0.45260834  0.80845372  0.33208529  1.0
  F  F2637  1  0.45260834  0.88537680  0.33208529  1.0
  F  F2638  1  0.45260834  0.96229988  0.33208529  1.0
  F  F2639  1  0.54351743  0.03922295  0.33208529  1.0
  F  F2640  1  0.54351743  0.11614603  0.33208529  1.0
  F  F2641  1  0.54351743  0.19306911  0.33208529  1.0
  F  F2642  1  0.54351743  0.26999218  0.33208529  1.0
  F  F2643  1  0.54351743  0.34691526  0.33208529  1.0
  F  F2644  1  0.54351743  0.42383834  0.33208529  1.0
  F  F2645  1  0.54351743  0.50076141  0.33208529  1.0
  F  F2646  1  0.54351743  0.57768449  0.33208529  1.0
  F  F2647  1  0.54351743  0.65460757  0.33208529  1.0
  F  F2648  1  0.54351743  0.73153064  0.33208529  1.0
  F  F2649  1  0.54351743  0.80845372  0.33208529  1.0
  F  F2650  1  0.54351743  0.88537680  0.33208529  1.0
  F  F2651  1  0.54351743  0.96229988  0.33208529  1.0
  F  F2652  1  0.63442653  0.03922295  0.33208529  1.0
  F  F2653  1  0.63442653  0.11614603  0.33208529  1.0
  F  F2654  1  0.63442653  0.19306911  0.33208529  1.0
  F  F2655  1  0.63442653  0.26999218  0.33208529  1.0
  F  F2656  1  0.63442653  0.34691526  0.33208529  1.0
  F  F2657  1  0.63442653  0.42383834  0.33208529  1.0
  F  F2658  1  0.63442653  0.50076141  0.33208529  1.0
  F  F2659  1  0.63442653  0.57768449  0.33208529  1.0
  F  F2660  1  0.63442653  0.65460757  0.33208529  1.0
  F  F2661  1  0.63442653  0.73153064  0.33208529  1.0
  F  F2662  1  0.63442653  0.80845372  0.33208529  1.0
  F  F2663  1  0.63442653  0.88537680  0.33208529  1.0
  F  F2664  1  0.63442653  0.96229988  0.33208529  1.0
  F  F2665  1  0.72533562  0.03922295  0.33208529  1.0
  F  F2666  1  0.72533562  0.11614603  0.33208529  1.0
  F  F2667  1  0.72533562  0.19306911  0.33208529  1.0
  F  F2668  1  0.72533562  0.26999218  0.33208529  1.0
  F  F2669  1  0.72533562  0.34691526  0.33208529  1.0
  F  F2670  1  0.72533562  0.42383834  0.33208529  1.0
  F  F2671  1  0.72533562  0.50076141  0.33208529  1.0
  F  F2672  1  0.72533562  0.57768449  0.33208529  1.0
  F  F2673  1  0.72533562  0.65460757  0.33208529  1.0
  F  F2674  1  0.72533562  0.73153064  0.33208529  1.0
  F  F2675  1  0.72533562  0.80845372  0.33208529  1.0
  F  F2676  1  0.72533562  0.88537680  0.33208529  1.0
  F  F2677  1  0.72533562  0.96229988  0.33208529  1.0
  F  F2678  1  0.81624471  0.03922295  0.33208529  1.0
  F  F2679  1  0.81624471  0.11614603  0.33208529  1.0
  F  F2680  1  0.81624471  0.19306911  0.33208529  1.0
  F  F2681  1  0.81624471  0.26999218  0.33208529  1.0
  F  F2682  1  0.81624471  0.34691526  0.33208529  1.0
  F  F2683  1  0.81624471  0.42383834  0.33208529  1.0
  F  F2684  1  0.81624471  0.50076141  0.33208529  1.0
  F  F2685  1  0.81624471  0.57768449  0.33208529  1.0
  F  F2686  1  0.81624471  0.65460757  0.33208529  1.0
  F  F2687  1  0.81624471  0.73153064  0.33208529  1.0
  F  F2688  1  0.81624471  0.80845372  0.33208529  1.0
  F  F2689  1  0.81624471  0.88537680  0.33208529  1.0
  F  F2690  1  0.81624471  0.96229988  0.33208529  1.0
  F  F2691  1  0.90715380  0.03922295  0.33208529  1.0
  F  F2692  1  0.90715380  0.11614603  0.33208529  1.0
  F  F2693  1  0.90715380  0.19306911  0.33208529  1.0
  F  F2694  1  0.90715380  0.26999218  0.33208529  1.0
  F  F2695  1  0.90715380  0.34691526  0.33208529  1.0
  F  F2696  1  0.90715380  0.42383834  0.33208529  1.0
  F  F2697  1  0.90715380  0.50076141  0.33208529  1.0
  F  F2698  1  0.90715380  0.57768449  0.33208529  1.0
  F  F2699  1  0.90715380  0.65460757  0.33208529  1.0
  F  F2700  1  0.90715380  0.73153064  0.33208529  1.0
  F  F2701  1  0.90715380  0.80845372  0.33208529  1.0
  F  F2702  1  0.90715380  0.88537680  0.33208529  1.0
  F  F2703  1  0.90715380  0.96229988  0.33208529  1.0
  F  F2704  1  0.99806289  0.03922295  0.33208529  1.0
  F  F2705  1  0.99806289  0.11614603  0.33208529  1.0
  F  F2706  1  0.99806289  0.19306911  0.33208529  1.0
  F  F2707  1  0.99806289  0.26999218  0.33208529  1.0
  F  F2708  1  0.99806289  0.34691526  0.33208529  1.0
  F  F2709  1  0.99806289  0.42383834  0.33208529  1.0
  F  F2710  1  0.99806289  0.50076141  0.33208529  1.0
  F  F2711  1  0.99806289  0.57768449  0.33208529  1.0
  F  F2712  1  0.99806289  0.65460757  0.33208529  1.0
  F  F2713  1  0.99806289  0.73153064  0.33208529  1.0
  F  F2714  1  0.99806289  0.80845372  0.33208529  1.0
  F  F2715  1  0.99806289  0.88537680  0.33208529  1.0
  F  F2716  1  0.99806289  0.96229988  0.33208529  1.0
  F  F2717  1  0.07696289  0.06508707  0.29867924  1.0
  F  F2718  1  0.07696289  0.14201014  0.29867924  1.0
  F  F2719  1  0.07696289  0.21893322  0.29867924  1.0
  F  F2720  1  0.07696289  0.29585630  0.29867924  1.0
  F  F2721  1  0.07696289  0.37277938  0.29867924  1.0
  F  F2722  1  0.07696289  0.44970245  0.29867924  1.0
  F  F2723  1  0.07696289  0.52662553  0.29867924  1.0
  F  F2724  1  0.07696289  0.60354861  0.29867924  1.0
  F  F2725  1  0.07696289  0.68047168  0.29867924  1.0
  F  F2726  1  0.07696289  0.75739476  0.29867924  1.0
  F  F2727  1  0.07696289  0.83431784  0.29867924  1.0
  F  F2728  1  0.07696289  0.91124091  0.29867924  1.0
  F  F2729  1  0.07696289  0.98816399  0.29867924  1.0
  F  F2730  1  0.16787198  0.06508707  0.29867924  1.0
  F  F2731  1  0.16787198  0.14201014  0.29867924  1.0
  F  F2732  1  0.16787198  0.21893322  0.29867924  1.0
  F  F2733  1  0.16787198  0.29585630  0.29867924  1.0
  F  F2734  1  0.16787198  0.37277938  0.29867924  1.0
  F  F2735  1  0.16787198  0.44970245  0.29867924  1.0
  F  F2736  1  0.16787198  0.52662553  0.29867924  1.0
  F  F2737  1  0.16787198  0.60354861  0.29867924  1.0
  F  F2738  1  0.16787198  0.68047168  0.29867924  1.0
  F  F2739  1  0.16787198  0.75739476  0.29867924  1.0
  F  F2740  1  0.16787198  0.83431784  0.29867924  1.0
  F  F2741  1  0.16787198  0.91124091  0.29867924  1.0
  F  F2742  1  0.16787198  0.98816399  0.29867924  1.0
  F  F2743  1  0.25878107  0.06508707  0.29867924  1.0
  F  F2744  1  0.25878107  0.14201014  0.29867924  1.0
  F  F2745  1  0.25878107  0.21893322  0.29867924  1.0
  F  F2746  1  0.25878107  0.29585630  0.29867924  1.0
  F  F2747  1  0.25878107  0.37277938  0.29867924  1.0
  F  F2748  1  0.25878107  0.44970245  0.29867924  1.0
  F  F2749  1  0.25878107  0.52662553  0.29867924  1.0
  F  F2750  1  0.25878107  0.60354861  0.29867924  1.0
  F  F2751  1  0.25878107  0.68047168  0.29867924  1.0
  F  F2752  1  0.25878107  0.75739476  0.29867924  1.0
  F  F2753  1  0.25878107  0.83431784  0.29867924  1.0
  F  F2754  1  0.25878107  0.91124091  0.29867924  1.0
  F  F2755  1  0.25878107  0.98816399  0.29867924  1.0
  F  F2756  1  0.34969016  0.06508707  0.29867924  1.0
  F  F2757  1  0.34969016  0.14201014  0.29867924  1.0
  F  F2758  1  0.34969016  0.21893322  0.29867924  1.0
  F  F2759  1  0.34969016  0.29585630  0.29867924  1.0
  F  F2760  1  0.34969016  0.37277938  0.29867924  1.0
  F  F2761  1  0.34969016  0.44970245  0.29867924  1.0
  F  F2762  1  0.34969016  0.52662553  0.29867924  1.0
  F  F2763  1  0.34969016  0.60354861  0.29867924  1.0
  F  F2764  1  0.34969016  0.68047168  0.29867924  1.0
  F  F2765  1  0.34969016  0.75739476  0.29867924  1.0
  F  F2766  1  0.34969016  0.83431784  0.29867924  1.0
  F  F2767  1  0.34969016  0.91124091  0.29867924  1.0
  F  F2768  1  0.34969016  0.98816399  0.29867924  1.0
  F  F2769  1  0.44059925  0.06508707  0.29867924  1.0
  F  F2770  1  0.44059925  0.14201014  0.29867924  1.0
  F  F2771  1  0.44059925  0.21893322  0.29867924  1.0
  F  F2772  1  0.44059925  0.29585630  0.29867924  1.0
  F  F2773  1  0.44059925  0.37277938  0.29867924  1.0
  F  F2774  1  0.44059925  0.44970245  0.29867924  1.0
  F  F2775  1  0.44059925  0.52662553  0.29867924  1.0
  F  F2776  1  0.44059925  0.60354861  0.29867924  1.0
  F  F2777  1  0.44059925  0.68047168  0.29867924  1.0
  F  F2778  1  0.44059925  0.75739476  0.29867924  1.0
  F  F2779  1  0.44059925  0.83431784  0.29867924  1.0
  F  F2780  1  0.44059925  0.91124091  0.29867924  1.0
  F  F2781  1  0.44059925  0.98816399  0.29867924  1.0
  F  F2782  1  0.53150834  0.06508707  0.29867924  1.0
  F  F2783  1  0.53150834  0.14201014  0.29867924  1.0
  F  F2784  1  0.53150834  0.21893322  0.29867924  1.0
  F  F2785  1  0.53150834  0.29585630  0.29867924  1.0
  F  F2786  1  0.53150834  0.37277938  0.29867924  1.0
  F  F2787  1  0.53150834  0.44970245  0.29867924  1.0
  F  F2788  1  0.53150834  0.52662553  0.29867924  1.0
  F  F2789  1  0.53150834  0.60354861  0.29867924  1.0
  F  F2790  1  0.53150834  0.68047168  0.29867924  1.0
  F  F2791  1  0.53150834  0.75739476  0.29867924  1.0
  F  F2792  1  0.53150834  0.83431784  0.29867924  1.0
  F  F2793  1  0.53150834  0.91124091  0.29867924  1.0
  F  F2794  1  0.53150834  0.98816399  0.29867924  1.0
  F  F2795  1  0.62241744  0.06508707  0.29867924  1.0
  F  F2796  1  0.62241744  0.14201014  0.29867924  1.0
  F  F2797  1  0.62241744  0.21893322  0.29867924  1.0
  F  F2798  1  0.62241744  0.29585630  0.29867924  1.0
  F  F2799  1  0.62241744  0.37277938  0.29867924  1.0
  F  F2800  1  0.62241744  0.44970245  0.29867924  1.0
  F  F2801  1  0.62241744  0.52662553  0.29867924  1.0
  F  F2802  1  0.62241744  0.60354861  0.29867924  1.0
  F  F2803  1  0.62241744  0.68047168  0.29867924  1.0
  F  F2804  1  0.62241744  0.75739476  0.29867924  1.0
  F  F2805  1  0.62241744  0.83431784  0.29867924  1.0
  F  F2806  1  0.62241744  0.91124091  0.29867924  1.0
  F  F2807  1  0.62241744  0.98816399  0.29867924  1.0
  F  F2808  1  0.71332653  0.06508707  0.29867924  1.0
  F  F2809  1  0.71332653  0.14201014  0.29867924  1.0
  F  F2810  1  0.71332653  0.21893322  0.29867924  1.0
  F  F2811  1  0.71332653  0.29585630  0.29867924  1.0
  F  F2812  1  0.71332653  0.37277938  0.29867924  1.0
  F  F2813  1  0.71332653  0.44970245  0.29867924  1.0
  F  F2814  1  0.71332653  0.52662553  0.29867924  1.0
  F  F2815  1  0.71332653  0.60354861  0.29867924  1.0
  F  F2816  1  0.71332653  0.68047168  0.29867924  1.0
  F  F2817  1  0.71332653  0.75739476  0.29867924  1.0
  F  F2818  1  0.71332653  0.83431784  0.29867924  1.0
  F  F2819  1  0.71332653  0.91124091  0.29867924  1.0
  F  F2820  1  0.71332653  0.98816399  0.29867924  1.0
  F  F2821  1  0.80423562  0.06508707  0.29867924  1.0
  F  F2822  1  0.80423562  0.14201014  0.29867924  1.0
  F  F2823  1  0.80423562  0.21893322  0.29867924  1.0
  F  F2824  1  0.80423562  0.29585630  0.29867924  1.0
  F  F2825  1  0.80423562  0.37277938  0.29867924  1.0
  F  F2826  1  0.80423562  0.44970245  0.29867924  1.0
  F  F2827  1  0.80423562  0.52662553  0.29867924  1.0
  F  F2828  1  0.80423562  0.60354861  0.29867924  1.0
  F  F2829  1  0.80423562  0.68047168  0.29867924  1.0
  F  F2830  1  0.80423562  0.75739476  0.29867924  1.0
  F  F2831  1  0.80423562  0.83431784  0.29867924  1.0
  F  F2832  1  0.80423562  0.91124091  0.29867924  1.0
  F  F2833  1  0.80423562  0.98816399  0.29867924  1.0
  F  F2834  1  0.89514471  0.06508707  0.29867924  1.0
  F  F2835  1  0.89514471  0.14201014  0.29867924  1.0
  F  F2836  1  0.89514471  0.21893322  0.29867924  1.0
  F  F2837  1  0.89514471  0.29585630  0.29867924  1.0
  F  F2838  1  0.89514471  0.37277938  0.29867924  1.0
  F  F2839  1  0.89514471  0.44970245  0.29867924  1.0
  F  F2840  1  0.89514471  0.52662553  0.29867924  1.0
  F  F2841  1  0.89514471  0.60354861  0.29867924  1.0
  F  F2842  1  0.89514471  0.68047168  0.29867924  1.0
  F  F2843  1  0.89514471  0.75739476  0.29867924  1.0
  F  F2844  1  0.89514471  0.83431784  0.29867924  1.0
  F  F2845  1  0.89514471  0.91124091  0.29867924  1.0
  F  F2846  1  0.89514471  0.98816399  0.29867924  1.0
  F  F2847  1  0.98605380  0.06508707  0.29867924  1.0
  F  F2848  1  0.98605380  0.14201014  0.29867924  1.0
  F  F2849  1  0.98605380  0.21893322  0.29867924  1.0
  F  F2850  1  0.98605380  0.29585630  0.29867924  1.0
  F  F2851  1  0.98605380  0.37277938  0.29867924  1.0
  F  F2852  1  0.98605380  0.44970245  0.29867924  1.0
  F  F2853  1  0.98605380  0.52662553  0.29867924  1.0
  F  F2854  1  0.98605380  0.60354861  0.29867924  1.0
  F  F2855  1  0.98605380  0.68047168  0.29867924  1.0
  F  F2856  1  0.98605380  0.75739476  0.29867924  1.0
  F  F2857  1  0.98605380  0.83431784  0.29867924  1.0
  F  F2858  1  0.98605380  0.91124091  0.29867924  1.0
  F  F2859  1  0.98605380  0.98816399  0.29867924  1.0
  F  F2860  1  0.01635683  0.01380502  0.36534591  1.0
  F  F2861  1  0.01635683  0.09072809  0.36534591  1.0
  F  F2862  1  0.01635683  0.16765117  0.36534591  1.0
  F  F2863  1  0.01635683  0.24457425  0.36534591  1.0
  F  F2864  1  0.01635683  0.32149732  0.36534591  1.0
  F  F2865  1  0.01635683  0.39842040  0.36534591  1.0
  F  F2866  1  0.01635683  0.47534348  0.36534591  1.0
  F  F2867  1  0.01635683  0.55226655  0.36534591  1.0
  F  F2868  1  0.01635683  0.62918963  0.36534591  1.0
  F  F2869  1  0.01635683  0.70611271  0.36534591  1.0
  F  F2870  1  0.01635683  0.78303579  0.36534591  1.0
  F  F2871  1  0.01635683  0.85995886  0.36534591  1.0
  F  F2872  1  0.01635683  0.93688194  0.36534591  1.0
  F  F2873  1  0.10726592  0.01380502  0.36534591  1.0
  F  F2874  1  0.10726592  0.09072809  0.36534591  1.0
  F  F2875  1  0.10726592  0.16765117  0.36534591  1.0
  F  F2876  1  0.10726592  0.24457425  0.36534591  1.0
  F  F2877  1  0.10726592  0.32149732  0.36534591  1.0
  F  F2878  1  0.10726592  0.39842040  0.36534591  1.0
  F  F2879  1  0.10726592  0.47534348  0.36534591  1.0
  F  F2880  1  0.10726592  0.55226655  0.36534591  1.0
  F  F2881  1  0.10726592  0.62918963  0.36534591  1.0
  F  F2882  1  0.10726592  0.70611271  0.36534591  1.0
  F  F2883  1  0.10726592  0.78303579  0.36534591  1.0
  F  F2884  1  0.10726592  0.85995886  0.36534591  1.0
  F  F2885  1  0.10726592  0.93688194  0.36534591  1.0
  F  F2886  1  0.19817501  0.01380502  0.36534591  1.0
  F  F2887  1  0.19817501  0.09072809  0.36534591  1.0
  F  F2888  1  0.19817501  0.16765117  0.36534591  1.0
  F  F2889  1  0.19817501  0.24457425  0.36534591  1.0
  F  F2890  1  0.19817501  0.32149732  0.36534591  1.0
  F  F2891  1  0.19817501  0.39842040  0.36534591  1.0
  F  F2892  1  0.19817501  0.47534348  0.36534591  1.0
  F  F2893  1  0.19817501  0.55226655  0.36534591  1.0
  F  F2894  1  0.19817501  0.62918963  0.36534591  1.0
  F  F2895  1  0.19817501  0.70611271  0.36534591  1.0
  F  F2896  1  0.19817501  0.78303579  0.36534591  1.0
  F  F2897  1  0.19817501  0.85995886  0.36534591  1.0
  F  F2898  1  0.19817501  0.93688194  0.36534591  1.0
  F  F2899  1  0.28908410  0.01380502  0.36534591  1.0
  F  F2900  1  0.28908410  0.09072809  0.36534591  1.0
  F  F2901  1  0.28908410  0.16765117  0.36534591  1.0
  F  F2902  1  0.28908410  0.24457425  0.36534591  1.0
  F  F2903  1  0.28908410  0.32149732  0.36534591  1.0
  F  F2904  1  0.28908410  0.39842040  0.36534591  1.0
  F  F2905  1  0.28908410  0.47534348  0.36534591  1.0
  F  F2906  1  0.28908410  0.55226655  0.36534591  1.0
  F  F2907  1  0.28908410  0.62918963  0.36534591  1.0
  F  F2908  1  0.28908410  0.70611271  0.36534591  1.0
  F  F2909  1  0.28908410  0.78303579  0.36534591  1.0
  F  F2910  1  0.28908410  0.85995886  0.36534591  1.0
  F  F2911  1  0.28908410  0.93688194  0.36534591  1.0
  F  F2912  1  0.37999319  0.01380502  0.36534591  1.0
  F  F2913  1  0.37999319  0.09072809  0.36534591  1.0
  F  F2914  1  0.37999319  0.16765117  0.36534591  1.0
  F  F2915  1  0.37999319  0.24457425  0.36534591  1.0
  F  F2916  1  0.37999319  0.32149732  0.36534591  1.0
  F  F2917  1  0.37999319  0.39842040  0.36534591  1.0
  F  F2918  1  0.37999319  0.47534348  0.36534591  1.0
  F  F2919  1  0.37999319  0.55226655  0.36534591  1.0
  F  F2920  1  0.37999319  0.62918963  0.36534591  1.0
  F  F2921  1  0.37999319  0.70611271  0.36534591  1.0
  F  F2922  1  0.37999319  0.78303579  0.36534591  1.0
  F  F2923  1  0.37999319  0.85995886  0.36534591  1.0
  F  F2924  1  0.37999319  0.93688194  0.36534591  1.0
  F  F2925  1  0.47090228  0.01380502  0.36534591  1.0
  F  F2926  1  0.47090228  0.09072809  0.36534591  1.0
  F  F2927  1  0.47090228  0.16765117  0.36534591  1.0
  F  F2928  1  0.47090228  0.24457425  0.36534591  1.0
  F  F2929  1  0.47090228  0.32149732  0.36534591  1.0
  F  F2930  1  0.47090228  0.39842040  0.36534591  1.0
  F  F2931  1  0.47090228  0.47534348  0.36534591  1.0
  F  F2932  1  0.47090228  0.55226655  0.36534591  1.0
  F  F2933  1  0.47090228  0.62918963  0.36534591  1.0
  F  F2934  1  0.47090228  0.70611271  0.36534591  1.0
  F  F2935  1  0.47090228  0.78303579  0.36534591  1.0
  F  F2936  1  0.47090228  0.85995886  0.36534591  1.0
  F  F2937  1  0.47090228  0.93688194  0.36534591  1.0
  F  F2938  1  0.56181137  0.01380502  0.36534591  1.0
  F  F2939  1  0.56181137  0.09072809  0.36534591  1.0
  F  F2940  1  0.56181137  0.16765117  0.36534591  1.0
  F  F2941  1  0.56181137  0.24457425  0.36534591  1.0
  F  F2942  1  0.56181137  0.32149732  0.36534591  1.0
  F  F2943  1  0.56181137  0.39842040  0.36534591  1.0
  F  F2944  1  0.56181137  0.47534348  0.36534591  1.0
  F  F2945  1  0.56181137  0.55226655  0.36534591  1.0
  F  F2946  1  0.56181137  0.62918963  0.36534591  1.0
  F  F2947  1  0.56181137  0.70611271  0.36534591  1.0
  F  F2948  1  0.56181137  0.78303579  0.36534591  1.0
  F  F2949  1  0.56181137  0.85995886  0.36534591  1.0
  F  F2950  1  0.56181137  0.93688194  0.36534591  1.0
  F  F2951  1  0.65272047  0.01380502  0.36534591  1.0
  F  F2952  1  0.65272047  0.09072809  0.36534591  1.0
  F  F2953  1  0.65272047  0.16765117  0.36534591  1.0
  F  F2954  1  0.65272047  0.24457425  0.36534591  1.0
  F  F2955  1  0.65272047  0.32149732  0.36534591  1.0
  F  F2956  1  0.65272047  0.39842040  0.36534591  1.0
  F  F2957  1  0.65272047  0.47534348  0.36534591  1.0
  F  F2958  1  0.65272047  0.55226655  0.36534591  1.0
  F  F2959  1  0.65272047  0.62918963  0.36534591  1.0
  F  F2960  1  0.65272047  0.70611271  0.36534591  1.0
  F  F2961  1  0.65272047  0.78303579  0.36534591  1.0
  F  F2962  1  0.65272047  0.85995886  0.36534591  1.0
  F  F2963  1  0.65272047  0.93688194  0.36534591  1.0
  F  F2964  1  0.74362956  0.01380502  0.36534591  1.0
  F  F2965  1  0.74362956  0.09072809  0.36534591  1.0
  F  F2966  1  0.74362956  0.16765117  0.36534591  1.0
  F  F2967  1  0.74362956  0.24457425  0.36534591  1.0
  F  F2968  1  0.74362956  0.32149732  0.36534591  1.0
  F  F2969  1  0.74362956  0.39842040  0.36534591  1.0
  F  F2970  1  0.74362956  0.47534348  0.36534591  1.0
  F  F2971  1  0.74362956  0.55226655  0.36534591  1.0
  F  F2972  1  0.74362956  0.62918963  0.36534591  1.0
  F  F2973  1  0.74362956  0.70611271  0.36534591  1.0
  F  F2974  1  0.74362956  0.78303579  0.36534591  1.0
  F  F2975  1  0.74362956  0.85995886  0.36534591  1.0
  F  F2976  1  0.74362956  0.93688194  0.36534591  1.0
  F  F2977  1  0.83453865  0.01380502  0.36534591  1.0
  F  F2978  1  0.83453865  0.09072809  0.36534591  1.0
  F  F2979  1  0.83453865  0.16765117  0.36534591  1.0
  F  F2980  1  0.83453865  0.24457425  0.36534591  1.0
  F  F2981  1  0.83453865  0.32149732  0.36534591  1.0
  F  F2982  1  0.83453865  0.39842040  0.36534591  1.0
  F  F2983  1  0.83453865  0.47534348  0.36534591  1.0
  F  F2984  1  0.83453865  0.55226655  0.36534591  1.0
  F  F2985  1  0.83453865  0.62918963  0.36534591  1.0
  F  F2986  1  0.83453865  0.70611271  0.36534591  1.0
  F  F2987  1  0.83453865  0.78303579  0.36534591  1.0
  F  F2988  1  0.83453865  0.85995886  0.36534591  1.0
  F  F2989  1  0.83453865  0.93688194  0.36534591  1.0
  F  F2990  1  0.92544774  0.01380502  0.36534591  1.0
  F  F2991  1  0.92544774  0.09072809  0.36534591  1.0
  F  F2992  1  0.92544774  0.16765117  0.36534591  1.0
  F  F2993  1  0.92544774  0.24457425  0.36534591  1.0
  F  F2994  1  0.92544774  0.32149732  0.36534591  1.0
  F  F2995  1  0.92544774  0.39842040  0.36534591  1.0
  F  F2996  1  0.92544774  0.47534348  0.36534591  1.0
  F  F2997  1  0.92544774  0.55226655  0.36534591  1.0
  F  F2998  1  0.92544774  0.62918963  0.36534591  1.0
  F  F2999  1  0.92544774  0.70611271  0.36534591  1.0
  F  F3000  1  0.92544774  0.78303579  0.36534591  1.0
  F  F3001  1  0.92544774  0.85995886  0.36534591  1.0
  F  F3002  1  0.92544774  0.93688194  0.36534591  1.0
  F  F3003  1  0.04665986  0.03944604  0.23201257  1.0
  F  F3004  1  0.04665986  0.11636912  0.23201257  1.0
  F  F3005  1  0.04665986  0.19329220  0.23201257  1.0
  F  F3006  1  0.04665986  0.27021527  0.23201257  1.0
  F  F3007  1  0.04665986  0.34713835  0.23201257  1.0
  F  F3008  1  0.04665986  0.42406143  0.23201257  1.0
  F  F3009  1  0.04665986  0.50098450  0.23201257  1.0
  F  F3010  1  0.04665986  0.57790758  0.23201257  1.0
  F  F3011  1  0.04665986  0.65483066  0.23201257  1.0
  F  F3012  1  0.04665986  0.73175373  0.23201257  1.0
  F  F3013  1  0.04665986  0.80867681  0.23201257  1.0
  F  F3014  1  0.04665986  0.88559989  0.23201257  1.0
  F  F3015  1  0.04665986  0.96252296  0.23201257  1.0
  F  F3016  1  0.13756895  0.03944604  0.23201257  1.0
  F  F3017  1  0.13756895  0.11636912  0.23201257  1.0
  F  F3018  1  0.13756895  0.19329220  0.23201257  1.0
  F  F3019  1  0.13756895  0.27021527  0.23201257  1.0
  F  F3020  1  0.13756895  0.34713835  0.23201257  1.0
  F  F3021  1  0.13756895  0.42406143  0.23201257  1.0
  F  F3022  1  0.13756895  0.50098450  0.23201257  1.0
  F  F3023  1  0.13756895  0.57790758  0.23201257  1.0
  F  F3024  1  0.13756895  0.65483066  0.23201257  1.0
  F  F3025  1  0.13756895  0.73175373  0.23201257  1.0
  F  F3026  1  0.13756895  0.80867681  0.23201257  1.0
  F  F3027  1  0.13756895  0.88559989  0.23201257  1.0
  F  F3028  1  0.13756895  0.96252296  0.23201257  1.0
  F  F3029  1  0.22847804  0.03944604  0.23201257  1.0
  F  F3030  1  0.22847804  0.11636912  0.23201257  1.0
  F  F3031  1  0.22847804  0.19329220  0.23201257  1.0
  F  F3032  1  0.22847804  0.27021527  0.23201257  1.0
  F  F3033  1  0.22847804  0.34713835  0.23201257  1.0
  F  F3034  1  0.22847804  0.42406143  0.23201257  1.0
  F  F3035  1  0.22847804  0.50098450  0.23201257  1.0
  F  F3036  1  0.22847804  0.57790758  0.23201257  1.0
  F  F3037  1  0.22847804  0.65483066  0.23201257  1.0
  F  F3038  1  0.22847804  0.73175373  0.23201257  1.0
  F  F3039  1  0.22847804  0.80867681  0.23201257  1.0
  F  F3040  1  0.22847804  0.88559989  0.23201257  1.0
  F  F3041  1  0.22847804  0.96252296  0.23201257  1.0
  F  F3042  1  0.31938713  0.03944604  0.23201257  1.0
  F  F3043  1  0.31938713  0.11636912  0.23201257  1.0
  F  F3044  1  0.31938713  0.19329220  0.23201257  1.0
  F  F3045  1  0.31938713  0.27021527  0.23201257  1.0
  F  F3046  1  0.31938713  0.34713835  0.23201257  1.0
  F  F3047  1  0.31938713  0.42406143  0.23201257  1.0
  F  F3048  1  0.31938713  0.50098450  0.23201257  1.0
  F  F3049  1  0.31938713  0.57790758  0.23201257  1.0
  F  F3050  1  0.31938713  0.65483066  0.23201257  1.0
  F  F3051  1  0.31938713  0.73175373  0.23201257  1.0
  F  F3052  1  0.31938713  0.80867681  0.23201257  1.0
  F  F3053  1  0.31938713  0.88559989  0.23201257  1.0
  F  F3054  1  0.31938713  0.96252296  0.23201257  1.0
  F  F3055  1  0.41029622  0.03944604  0.23201257  1.0
  F  F3056  1  0.41029622  0.11636912  0.23201257  1.0
  F  F3057  1  0.41029622  0.19329220  0.23201257  1.0
  F  F3058  1  0.41029622  0.27021527  0.23201257  1.0
  F  F3059  1  0.41029622  0.34713835  0.23201257  1.0
  F  F3060  1  0.41029622  0.42406143  0.23201257  1.0
  F  F3061  1  0.41029622  0.50098450  0.23201257  1.0
  F  F3062  1  0.41029622  0.57790758  0.23201257  1.0
  F  F3063  1  0.41029622  0.65483066  0.23201257  1.0
  F  F3064  1  0.41029622  0.73175373  0.23201257  1.0
  F  F3065  1  0.41029622  0.80867681  0.23201257  1.0
  F  F3066  1  0.41029622  0.88559989  0.23201257  1.0
  F  F3067  1  0.41029622  0.96252296  0.23201257  1.0
  F  F3068  1  0.50120531  0.03944604  0.23201257  1.0
  F  F3069  1  0.50120531  0.11636912  0.23201257  1.0
  F  F3070  1  0.50120531  0.19329220  0.23201257  1.0
  F  F3071  1  0.50120531  0.27021527  0.23201257  1.0
  F  F3072  1  0.50120531  0.34713835  0.23201257  1.0
  F  F3073  1  0.50120531  0.42406143  0.23201257  1.0
  F  F3074  1  0.50120531  0.50098450  0.23201257  1.0
  F  F3075  1  0.50120531  0.57790758  0.23201257  1.0
  F  F3076  1  0.50120531  0.65483066  0.23201257  1.0
  F  F3077  1  0.50120531  0.73175373  0.23201257  1.0
  F  F3078  1  0.50120531  0.80867681  0.23201257  1.0
  F  F3079  1  0.50120531  0.88559989  0.23201257  1.0
  F  F3080  1  0.50120531  0.96252296  0.23201257  1.0
  F  F3081  1  0.59211440  0.03944604  0.23201257  1.0
  F  F3082  1  0.59211440  0.11636912  0.23201257  1.0
  F  F3083  1  0.59211440  0.19329220  0.23201257  1.0
  F  F3084  1  0.59211440  0.27021527  0.23201257  1.0
  F  F3085  1  0.59211440  0.34713835  0.23201257  1.0
  F  F3086  1  0.59211440  0.42406143  0.23201257  1.0
  F  F3087  1  0.59211440  0.50098450  0.23201257  1.0
  F  F3088  1  0.59211440  0.57790758  0.23201257  1.0
  F  F3089  1  0.59211440  0.65483066  0.23201257  1.0
  F  F3090  1  0.59211440  0.73175373  0.23201257  1.0
  F  F3091  1  0.59211440  0.80867681  0.23201257  1.0
  F  F3092  1  0.59211440  0.88559989  0.23201257  1.0
  F  F3093  1  0.59211440  0.96252296  0.23201257  1.0
  F  F3094  1  0.68302350  0.03944604  0.23201257  1.0
  F  F3095  1  0.68302350  0.11636912  0.23201257  1.0
  F  F3096  1  0.68302350  0.19329220  0.23201257  1.0
  F  F3097  1  0.68302350  0.27021527  0.23201257  1.0
  F  F3098  1  0.68302350  0.34713835  0.23201257  1.0
  F  F3099  1  0.68302350  0.42406143  0.23201257  1.0
  F  F3100  1  0.68302350  0.50098450  0.23201257  1.0
  F  F3101  1  0.68302350  0.57790758  0.23201257  1.0
  F  F3102  1  0.68302350  0.65483066  0.23201257  1.0
  F  F3103  1  0.68302350  0.73175373  0.23201257  1.0
  F  F3104  1  0.68302350  0.80867681  0.23201257  1.0
  F  F3105  1  0.68302350  0.88559989  0.23201257  1.0
  F  F3106  1  0.68302350  0.96252296  0.23201257  1.0
  F  F3107  1  0.77393259  0.03944604  0.23201257  1.0
  F  F3108  1  0.77393259  0.11636912  0.23201257  1.0
  F  F3109  1  0.77393259  0.19329220  0.23201257  1.0
  F  F3110  1  0.77393259  0.27021527  0.23201257  1.0
  F  F3111  1  0.77393259  0.34713835  0.23201257  1.0
  F  F3112  1  0.77393259  0.42406143  0.23201257  1.0
  F  F3113  1  0.77393259  0.50098450  0.23201257  1.0
  F  F3114  1  0.77393259  0.57790758  0.23201257  1.0
  F  F3115  1  0.77393259  0.65483066  0.23201257  1.0
  F  F3116  1  0.77393259  0.73175373  0.23201257  1.0
  F  F3117  1  0.77393259  0.80867681  0.23201257  1.0
  F  F3118  1  0.77393259  0.88559989  0.23201257  1.0
  F  F3119  1  0.77393259  0.96252296  0.23201257  1.0
  F  F3120  1  0.86484168  0.03944604  0.23201257  1.0
  F  F3121  1  0.86484168  0.11636912  0.23201257  1.0
  F  F3122  1  0.86484168  0.19329220  0.23201257  1.0
  F  F3123  1  0.86484168  0.27021527  0.23201257  1.0
  F  F3124  1  0.86484168  0.34713835  0.23201257  1.0
  F  F3125  1  0.86484168  0.42406143  0.23201257  1.0
  F  F3126  1  0.86484168  0.50098450  0.23201257  1.0
  F  F3127  1  0.86484168  0.57790758  0.23201257  1.0
  F  F3128  1  0.86484168  0.65483066  0.23201257  1.0
  F  F3129  1  0.86484168  0.73175373  0.23201257  1.0
  F  F3130  1  0.86484168  0.80867681  0.23201257  1.0
  F  F3131  1  0.86484168  0.88559989  0.23201257  1.0
  F  F3132  1  0.86484168  0.96252296  0.23201257  1.0
  F  F3133  1  0.95575077  0.03944604  0.23201257  1.0
  F  F3134  1  0.95575077  0.11636912  0.23201257  1.0
  F  F3135  1  0.95575077  0.19329220  0.23201257  1.0
  F  F3136  1  0.95575077  0.27021527  0.23201257  1.0
  F  F3137  1  0.95575077  0.34713835  0.23201257  1.0
  F  F3138  1  0.95575077  0.42406143  0.23201257  1.0
  F  F3139  1  0.95575077  0.50098450  0.23201257  1.0
  F  F3140  1  0.95575077  0.57790758  0.23201257  1.0
  F  F3141  1  0.95575077  0.65483066  0.23201257  1.0
  F  F3142  1  0.95575077  0.73175373  0.23201257  1.0
  F  F3143  1  0.95575077  0.80867681  0.23201257  1.0
  F  F3144  1  0.95575077  0.88559989  0.23201257  1.0
  F  F3145  1  0.95575077  0.96252296  0.23201257  1.0
  F  F3146  1  0.03224014  0.06334115  0.29520888  1.0
  F  F3147  1  0.03224014  0.14026423  0.29520888  1.0
  F  F3148  1  0.03224014  0.21718730  0.29520888  1.0
  F  F3149  1  0.03224014  0.29411038  0.29520888  1.0
  F  F3150  1  0.03224014  0.37103346  0.29520888  1.0
  F  F3151  1  0.03224014  0.44795654  0.29520888  1.0
  F  F3152  1  0.03224014  0.52487961  0.29520888  1.0
  F  F3153  1  0.03224014  0.60180269  0.29520888  1.0
  F  F3154  1  0.03224014  0.67872577  0.29520888  1.0
  F  F3155  1  0.03224014  0.75564884  0.29520888  1.0
  F  F3156  1  0.03224014  0.83257192  0.29520888  1.0
  F  F3157  1  0.03224014  0.90949500  0.29520888  1.0
  F  F3158  1  0.03224014  0.98641807  0.29520888  1.0
  F  F3159  1  0.12314923  0.06334115  0.29520888  1.0
  F  F3160  1  0.12314923  0.14026423  0.29520888  1.0
  F  F3161  1  0.12314923  0.21718730  0.29520888  1.0
  F  F3162  1  0.12314923  0.29411038  0.29520888  1.0
  F  F3163  1  0.12314923  0.37103346  0.29520888  1.0
  F  F3164  1  0.12314923  0.44795654  0.29520888  1.0
  F  F3165  1  0.12314923  0.52487961  0.29520888  1.0
  F  F3166  1  0.12314923  0.60180269  0.29520888  1.0
  F  F3167  1  0.12314923  0.67872577  0.29520888  1.0
  F  F3168  1  0.12314923  0.75564884  0.29520888  1.0
  F  F3169  1  0.12314923  0.83257192  0.29520888  1.0
  F  F3170  1  0.12314923  0.90949500  0.29520888  1.0
  F  F3171  1  0.12314923  0.98641807  0.29520888  1.0
  F  F3172  1  0.21405832  0.06334115  0.29520888  1.0
  F  F3173  1  0.21405832  0.14026423  0.29520888  1.0
  F  F3174  1  0.21405832  0.21718730  0.29520888  1.0
  F  F3175  1  0.21405832  0.29411038  0.29520888  1.0
  F  F3176  1  0.21405832  0.37103346  0.29520888  1.0
  F  F3177  1  0.21405832  0.44795654  0.29520888  1.0
  F  F3178  1  0.21405832  0.52487961  0.29520888  1.0
  F  F3179  1  0.21405832  0.60180269  0.29520888  1.0
  F  F3180  1  0.21405832  0.67872577  0.29520888  1.0
  F  F3181  1  0.21405832  0.75564884  0.29520888  1.0
  F  F3182  1  0.21405832  0.83257192  0.29520888  1.0
  F  F3183  1  0.21405832  0.90949500  0.29520888  1.0
  F  F3184  1  0.21405832  0.98641807  0.29520888  1.0
  F  F3185  1  0.30496741  0.06334115  0.29520888  1.0
  F  F3186  1  0.30496741  0.14026423  0.29520888  1.0
  F  F3187  1  0.30496741  0.21718730  0.29520888  1.0
  F  F3188  1  0.30496741  0.29411038  0.29520888  1.0
  F  F3189  1  0.30496741  0.37103346  0.29520888  1.0
  F  F3190  1  0.30496741  0.44795654  0.29520888  1.0
  F  F3191  1  0.30496741  0.52487961  0.29520888  1.0
  F  F3192  1  0.30496741  0.60180269  0.29520888  1.0
  F  F3193  1  0.30496741  0.67872577  0.29520888  1.0
  F  F3194  1  0.30496741  0.75564884  0.29520888  1.0
  F  F3195  1  0.30496741  0.83257192  0.29520888  1.0
  F  F3196  1  0.30496741  0.90949500  0.29520888  1.0
  F  F3197  1  0.30496741  0.98641807  0.29520888  1.0
  F  F3198  1  0.39587651  0.06334115  0.29520888  1.0
  F  F3199  1  0.39587651  0.14026423  0.29520888  1.0
  F  F3200  1  0.39587651  0.21718730  0.29520888  1.0
  F  F3201  1  0.39587651  0.29411038  0.29520888  1.0
  F  F3202  1  0.39587651  0.37103346  0.29520888  1.0
  F  F3203  1  0.39587651  0.44795654  0.29520888  1.0
  F  F3204  1  0.39587651  0.52487961  0.29520888  1.0
  F  F3205  1  0.39587651  0.60180269  0.29520888  1.0
  F  F3206  1  0.39587651  0.67872577  0.29520888  1.0
  F  F3207  1  0.39587651  0.75564884  0.29520888  1.0
  F  F3208  1  0.39587651  0.83257192  0.29520888  1.0
  F  F3209  1  0.39587651  0.90949500  0.29520888  1.0
  F  F3210  1  0.39587651  0.98641807  0.29520888  1.0
  F  F3211  1  0.48678560  0.06334115  0.29520888  1.0
  F  F3212  1  0.48678560  0.14026423  0.29520888  1.0
  F  F3213  1  0.48678560  0.21718730  0.29520888  1.0
  F  F3214  1  0.48678560  0.29411038  0.29520888  1.0
  F  F3215  1  0.48678560  0.37103346  0.29520888  1.0
  F  F3216  1  0.48678560  0.44795654  0.29520888  1.0
  F  F3217  1  0.48678560  0.52487961  0.29520888  1.0
  F  F3218  1  0.48678560  0.60180269  0.29520888  1.0
  F  F3219  1  0.48678560  0.67872577  0.29520888  1.0
  F  F3220  1  0.48678560  0.75564884  0.29520888  1.0
  F  F3221  1  0.48678560  0.83257192  0.29520888  1.0
  F  F3222  1  0.48678560  0.90949500  0.29520888  1.0
  F  F3223  1  0.48678560  0.98641807  0.29520888  1.0
  F  F3224  1  0.57769469  0.06334115  0.29520888  1.0
  F  F3225  1  0.57769469  0.14026423  0.29520888  1.0
  F  F3226  1  0.57769469  0.21718730  0.29520888  1.0
  F  F3227  1  0.57769469  0.29411038  0.29520888  1.0
  F  F3228  1  0.57769469  0.37103346  0.29520888  1.0
  F  F3229  1  0.57769469  0.44795654  0.29520888  1.0
  F  F3230  1  0.57769469  0.52487961  0.29520888  1.0
  F  F3231  1  0.57769469  0.60180269  0.29520888  1.0
  F  F3232  1  0.57769469  0.67872577  0.29520888  1.0
  F  F3233  1  0.57769469  0.75564884  0.29520888  1.0
  F  F3234  1  0.57769469  0.83257192  0.29520888  1.0
  F  F3235  1  0.57769469  0.90949500  0.29520888  1.0
  F  F3236  1  0.57769469  0.98641807  0.29520888  1.0
  F  F3237  1  0.66860378  0.06334115  0.29520888  1.0
  F  F3238  1  0.66860378  0.14026423  0.29520888  1.0
  F  F3239  1  0.66860378  0.21718730  0.29520888  1.0
  F  F3240  1  0.66860378  0.29411038  0.29520888  1.0
  F  F3241  1  0.66860378  0.37103346  0.29520888  1.0
  F  F3242  1  0.66860378  0.44795654  0.29520888  1.0
  F  F3243  1  0.66860378  0.52487961  0.29520888  1.0
  F  F3244  1  0.66860378  0.60180269  0.29520888  1.0
  F  F3245  1  0.66860378  0.67872577  0.29520888  1.0
  F  F3246  1  0.66860378  0.75564884  0.29520888  1.0
  F  F3247  1  0.66860378  0.83257192  0.29520888  1.0
  F  F3248  1  0.66860378  0.90949500  0.29520888  1.0
  F  F3249  1  0.66860378  0.98641807  0.29520888  1.0
  F  F3250  1  0.75951287  0.06334115  0.29520888  1.0
  F  F3251  1  0.75951287  0.14026423  0.29520888  1.0
  F  F3252  1  0.75951287  0.21718730  0.29520888  1.0
  F  F3253  1  0.75951287  0.29411038  0.29520888  1.0
  F  F3254  1  0.75951287  0.37103346  0.29520888  1.0
  F  F3255  1  0.75951287  0.44795654  0.29520888  1.0
  F  F3256  1  0.75951287  0.52487961  0.29520888  1.0
  F  F3257  1  0.75951287  0.60180269  0.29520888  1.0
  F  F3258  1  0.75951287  0.67872577  0.29520888  1.0
  F  F3259  1  0.75951287  0.75564884  0.29520888  1.0
  F  F3260  1  0.75951287  0.83257192  0.29520888  1.0
  F  F3261  1  0.75951287  0.90949500  0.29520888  1.0
  F  F3262  1  0.75951287  0.98641807  0.29520888  1.0
  F  F3263  1  0.85042196  0.06334115  0.29520888  1.0
  F  F3264  1  0.85042196  0.14026423  0.29520888  1.0
  F  F3265  1  0.85042196  0.21718730  0.29520888  1.0
  F  F3266  1  0.85042196  0.29411038  0.29520888  1.0
  F  F3267  1  0.85042196  0.37103346  0.29520888  1.0
  F  F3268  1  0.85042196  0.44795654  0.29520888  1.0
  F  F3269  1  0.85042196  0.52487961  0.29520888  1.0
  F  F3270  1  0.85042196  0.60180269  0.29520888  1.0
  F  F3271  1  0.85042196  0.67872577  0.29520888  1.0
  F  F3272  1  0.85042196  0.75564884  0.29520888  1.0
  F  F3273  1  0.85042196  0.83257192  0.29520888  1.0
  F  F3274  1  0.85042196  0.90949500  0.29520888  1.0
  F  F3275  1  0.85042196  0.98641807  0.29520888  1.0
  F  F3276  1  0.94133105  0.06334115  0.29520888  1.0
  F  F3277  1  0.94133105  0.14026423  0.29520888  1.0
  F  F3278  1  0.94133105  0.21718730  0.29520888  1.0
  F  F3279  1  0.94133105  0.29411038  0.29520888  1.0
  F  F3280  1  0.94133105  0.37103346  0.29520888  1.0
  F  F3281  1  0.94133105  0.44795654  0.29520888  1.0
  F  F3282  1  0.94133105  0.52487961  0.29520888  1.0
  F  F3283  1  0.94133105  0.60180269  0.29520888  1.0
  F  F3284  1  0.94133105  0.67872577  0.29520888  1.0
  F  F3285  1  0.94133105  0.75564884  0.29520888  1.0
  F  F3286  1  0.94133105  0.83257192  0.29520888  1.0
  F  F3287  1  0.94133105  0.90949500  0.29520888  1.0
  F  F3288  1  0.94133105  0.98641807  0.29520888  1.0
  F  F3289  1  0.06254317  0.01205910  0.36187554  1.0
  F  F3290  1  0.06254317  0.08898218  0.36187554  1.0
  F  F3291  1  0.06254317  0.16590525  0.36187554  1.0
  F  F3292  1  0.06254317  0.24282833  0.36187554  1.0
  F  F3293  1  0.06254317  0.31975141  0.36187554  1.0
  F  F3294  1  0.06254317  0.39667448  0.36187554  1.0
  F  F3295  1  0.06254317  0.47359756  0.36187554  1.0
  F  F3296  1  0.06254317  0.55052064  0.36187554  1.0
  F  F3297  1  0.06254317  0.62744371  0.36187554  1.0
  F  F3298  1  0.06254317  0.70436679  0.36187554  1.0
  F  F3299  1  0.06254317  0.78128987  0.36187554  1.0
  F  F3300  1  0.06254317  0.85821295  0.36187554  1.0
  F  F3301  1  0.06254317  0.93513602  0.36187554  1.0
  F  F3302  1  0.15345226  0.01205910  0.36187554  1.0
  F  F3303  1  0.15345226  0.08898218  0.36187554  1.0
  F  F3304  1  0.15345226  0.16590525  0.36187554  1.0
  F  F3305  1  0.15345226  0.24282833  0.36187554  1.0
  F  F3306  1  0.15345226  0.31975141  0.36187554  1.0
  F  F3307  1  0.15345226  0.39667448  0.36187554  1.0
  F  F3308  1  0.15345226  0.47359756  0.36187554  1.0
  F  F3309  1  0.15345226  0.55052064  0.36187554  1.0
  F  F3310  1  0.15345226  0.62744371  0.36187554  1.0
  F  F3311  1  0.15345226  0.70436679  0.36187554  1.0
  F  F3312  1  0.15345226  0.78128987  0.36187554  1.0
  F  F3313  1  0.15345226  0.85821295  0.36187554  1.0
  F  F3314  1  0.15345226  0.93513602  0.36187554  1.0
  F  F3315  1  0.24436135  0.01205910  0.36187554  1.0
  F  F3316  1  0.24436135  0.08898218  0.36187554  1.0
  F  F3317  1  0.24436135  0.16590525  0.36187554  1.0
  F  F3318  1  0.24436135  0.24282833  0.36187554  1.0
  F  F3319  1  0.24436135  0.31975141  0.36187554  1.0
  F  F3320  1  0.24436135  0.39667448  0.36187554  1.0
  F  F3321  1  0.24436135  0.47359756  0.36187554  1.0
  F  F3322  1  0.24436135  0.55052064  0.36187554  1.0
  F  F3323  1  0.24436135  0.62744371  0.36187554  1.0
  F  F3324  1  0.24436135  0.70436679  0.36187554  1.0
  F  F3325  1  0.24436135  0.78128987  0.36187554  1.0
  F  F3326  1  0.24436135  0.85821295  0.36187554  1.0
  F  F3327  1  0.24436135  0.93513602  0.36187554  1.0
  F  F3328  1  0.33527044  0.01205910  0.36187554  1.0
  F  F3329  1  0.33527044  0.08898218  0.36187554  1.0
  F  F3330  1  0.33527044  0.16590525  0.36187554  1.0
  F  F3331  1  0.33527044  0.24282833  0.36187554  1.0
  F  F3332  1  0.33527044  0.31975141  0.36187554  1.0
  F  F3333  1  0.33527044  0.39667448  0.36187554  1.0
  F  F3334  1  0.33527044  0.47359756  0.36187554  1.0
  F  F3335  1  0.33527044  0.55052064  0.36187554  1.0
  F  F3336  1  0.33527044  0.62744371  0.36187554  1.0
  F  F3337  1  0.33527044  0.70436679  0.36187554  1.0
  F  F3338  1  0.33527044  0.78128987  0.36187554  1.0
  F  F3339  1  0.33527044  0.85821295  0.36187554  1.0
  F  F3340  1  0.33527044  0.93513602  0.36187554  1.0
  F  F3341  1  0.42617954  0.01205910  0.36187554  1.0
  F  F3342  1  0.42617954  0.08898218  0.36187554  1.0
  F  F3343  1  0.42617954  0.16590525  0.36187554  1.0
  F  F3344  1  0.42617954  0.24282833  0.36187554  1.0
  F  F3345  1  0.42617954  0.31975141  0.36187554  1.0
  F  F3346  1  0.42617954  0.39667448  0.36187554  1.0
  F  F3347  1  0.42617954  0.47359756  0.36187554  1.0
  F  F3348  1  0.42617954  0.55052064  0.36187554  1.0
  F  F3349  1  0.42617954  0.62744371  0.36187554  1.0
  F  F3350  1  0.42617954  0.70436679  0.36187554  1.0
  F  F3351  1  0.42617954  0.78128987  0.36187554  1.0
  F  F3352  1  0.42617954  0.85821295  0.36187554  1.0
  F  F3353  1  0.42617954  0.93513602  0.36187554  1.0
  F  F3354  1  0.51708863  0.01205910  0.36187554  1.0
  F  F3355  1  0.51708863  0.08898218  0.36187554  1.0
  F  F3356  1  0.51708863  0.16590525  0.36187554  1.0
  F  F3357  1  0.51708863  0.24282833  0.36187554  1.0
  F  F3358  1  0.51708863  0.31975141  0.36187554  1.0
  F  F3359  1  0.51708863  0.39667448  0.36187554  1.0
  F  F3360  1  0.51708863  0.47359756  0.36187554  1.0
  F  F3361  1  0.51708863  0.55052064  0.36187554  1.0
  F  F3362  1  0.51708863  0.62744371  0.36187554  1.0
  F  F3363  1  0.51708863  0.70436679  0.36187554  1.0
  F  F3364  1  0.51708863  0.78128987  0.36187554  1.0
  F  F3365  1  0.51708863  0.85821295  0.36187554  1.0
  F  F3366  1  0.51708863  0.93513602  0.36187554  1.0
  F  F3367  1  0.60799772  0.01205910  0.36187554  1.0
  F  F3368  1  0.60799772  0.08898218  0.36187554  1.0
  F  F3369  1  0.60799772  0.16590525  0.36187554  1.0
  F  F3370  1  0.60799772  0.24282833  0.36187554  1.0
  F  F3371  1  0.60799772  0.31975141  0.36187554  1.0
  F  F3372  1  0.60799772  0.39667448  0.36187554  1.0
  F  F3373  1  0.60799772  0.47359756  0.36187554  1.0
  F  F3374  1  0.60799772  0.55052064  0.36187554  1.0
  F  F3375  1  0.60799772  0.62744371  0.36187554  1.0
  F  F3376  1  0.60799772  0.70436679  0.36187554  1.0
  F  F3377  1  0.60799772  0.78128987  0.36187554  1.0
  F  F3378  1  0.60799772  0.85821295  0.36187554  1.0
  F  F3379  1  0.60799772  0.93513602  0.36187554  1.0
  F  F3380  1  0.69890681  0.01205910  0.36187554  1.0
  F  F3381  1  0.69890681  0.08898218  0.36187554  1.0
  F  F3382  1  0.69890681  0.16590525  0.36187554  1.0
  F  F3383  1  0.69890681  0.24282833  0.36187554  1.0
  F  F3384  1  0.69890681  0.31975141  0.36187554  1.0
  F  F3385  1  0.69890681  0.39667448  0.36187554  1.0
  F  F3386  1  0.69890681  0.47359756  0.36187554  1.0
  F  F3387  1  0.69890681  0.55052064  0.36187554  1.0
  F  F3388  1  0.69890681  0.62744371  0.36187554  1.0
  F  F3389  1  0.69890681  0.70436679  0.36187554  1.0
  F  F3390  1  0.69890681  0.78128987  0.36187554  1.0
  F  F3391  1  0.69890681  0.85821295  0.36187554  1.0
  F  F3392  1  0.69890681  0.93513602  0.36187554  1.0
  F  F3393  1  0.78981590  0.01205910  0.36187554  1.0
  F  F3394  1  0.78981590  0.08898218  0.36187554  1.0
  F  F3395  1  0.78981590  0.16590525  0.36187554  1.0
  F  F3396  1  0.78981590  0.24282833  0.36187554  1.0
  F  F3397  1  0.78981590  0.31975141  0.36187554  1.0
  F  F3398  1  0.78981590  0.39667448  0.36187554  1.0
  F  F3399  1  0.78981590  0.47359756  0.36187554  1.0
  F  F3400  1  0.78981590  0.55052064  0.36187554  1.0
  F  F3401  1  0.78981590  0.62744371  0.36187554  1.0
  F  F3402  1  0.78981590  0.70436679  0.36187554  1.0
  F  F3403  1  0.78981590  0.78128987  0.36187554  1.0
  F  F3404  1  0.78981590  0.85821295  0.36187554  1.0
  F  F3405  1  0.78981590  0.93513602  0.36187554  1.0
  F  F3406  1  0.88072499  0.01205910  0.36187554  1.0
  F  F3407  1  0.88072499  0.08898218  0.36187554  1.0
  F  F3408  1  0.88072499  0.16590525  0.36187554  1.0
  F  F3409  1  0.88072499  0.24282833  0.36187554  1.0
  F  F3410  1  0.88072499  0.31975141  0.36187554  1.0
  F  F3411  1  0.88072499  0.39667448  0.36187554  1.0
  F  F3412  1  0.88072499  0.47359756  0.36187554  1.0
  F  F3413  1  0.88072499  0.55052064  0.36187554  1.0
  F  F3414  1  0.88072499  0.62744371  0.36187554  1.0
  F  F3415  1  0.88072499  0.70436679  0.36187554  1.0
  F  F3416  1  0.88072499  0.78128987  0.36187554  1.0
  F  F3417  1  0.88072499  0.85821295  0.36187554  1.0
  F  F3418  1  0.88072499  0.93513602  0.36187554  1.0
  F  F3419  1  0.97163408  0.01205910  0.36187554  1.0
  F  F3420  1  0.97163408  0.08898218  0.36187554  1.0
  F  F3421  1  0.97163408  0.16590525  0.36187554  1.0
  F  F3422  1  0.97163408  0.24282833  0.36187554  1.0
  F  F3423  1  0.97163408  0.31975141  0.36187554  1.0
  F  F3424  1  0.97163408  0.39667448  0.36187554  1.0
  F  F3425  1  0.97163408  0.47359756  0.36187554  1.0
  F  F3426  1  0.97163408  0.55052064  0.36187554  1.0
  F  F3427  1  0.97163408  0.62744371  0.36187554  1.0
  F  F3428  1  0.97163408  0.70436679  0.36187554  1.0
  F  F3429  1  0.97163408  0.78128987  0.36187554  1.0
  F  F3430  1  0.97163408  0.85821295  0.36187554  1.0
  F  F3431  1  0.97163408  0.93513602  0.36187554  1.0
  F  F3432  1  0.01247164  0.05102528  0.26331554  1.0
  F  F3433  1  0.01247164  0.12794836  0.26331554  1.0
  F  F3434  1  0.01247164  0.20487144  0.26331554  1.0
  F  F3435  1  0.01247164  0.28179451  0.26331554  1.0
  F  F3436  1  0.01247164  0.35871759  0.26331554  1.0
  F  F3437  1  0.01247164  0.43564067  0.26331554  1.0
  F  F3438  1  0.01247164  0.51256374  0.26331554  1.0
  F  F3439  1  0.01247164  0.58948682  0.26331554  1.0
  F  F3440  1  0.01247164  0.66640990  0.26331554  1.0
  F  F3441  1  0.01247164  0.74333297  0.26331554  1.0
  F  F3442  1  0.01247164  0.82025605  0.26331554  1.0
  F  F3443  1  0.01247164  0.89717913  0.26331554  1.0
  F  F3444  1  0.01247164  0.97410221  0.26331554  1.0
  F  F3445  1  0.10338073  0.05102528  0.26331554  1.0
  F  F3446  1  0.10338073  0.12794836  0.26331554  1.0
  F  F3447  1  0.10338073  0.20487144  0.26331554  1.0
  F  F3448  1  0.10338073  0.28179451  0.26331554  1.0
  F  F3449  1  0.10338073  0.35871759  0.26331554  1.0
  F  F3450  1  0.10338073  0.43564067  0.26331554  1.0
  F  F3451  1  0.10338073  0.51256374  0.26331554  1.0
  F  F3452  1  0.10338073  0.58948682  0.26331554  1.0
  F  F3453  1  0.10338073  0.66640990  0.26331554  1.0
  F  F3454  1  0.10338073  0.74333297  0.26331554  1.0
  F  F3455  1  0.10338073  0.82025605  0.26331554  1.0
  F  F3456  1  0.10338073  0.89717913  0.26331554  1.0
  F  F3457  1  0.10338073  0.97410221  0.26331554  1.0
  F  F3458  1  0.19428982  0.05102528  0.26331554  1.0
  F  F3459  1  0.19428982  0.12794836  0.26331554  1.0
  F  F3460  1  0.19428982  0.20487144  0.26331554  1.0
  F  F3461  1  0.19428982  0.28179451  0.26331554  1.0
  F  F3462  1  0.19428982  0.35871759  0.26331554  1.0
  F  F3463  1  0.19428982  0.43564067  0.26331554  1.0
  F  F3464  1  0.19428982  0.51256374  0.26331554  1.0
  F  F3465  1  0.19428982  0.58948682  0.26331554  1.0
  F  F3466  1  0.19428982  0.66640990  0.26331554  1.0
  F  F3467  1  0.19428982  0.74333297  0.26331554  1.0
  F  F3468  1  0.19428982  0.82025605  0.26331554  1.0
  F  F3469  1  0.19428982  0.89717913  0.26331554  1.0
  F  F3470  1  0.19428982  0.97410221  0.26331554  1.0
  F  F3471  1  0.28519891  0.05102528  0.26331554  1.0
  F  F3472  1  0.28519891  0.12794836  0.26331554  1.0
  F  F3473  1  0.28519891  0.20487144  0.26331554  1.0
  F  F3474  1  0.28519891  0.28179451  0.26331554  1.0
  F  F3475  1  0.28519891  0.35871759  0.26331554  1.0
  F  F3476  1  0.28519891  0.43564067  0.26331554  1.0
  F  F3477  1  0.28519891  0.51256374  0.26331554  1.0
  F  F3478  1  0.28519891  0.58948682  0.26331554  1.0
  F  F3479  1  0.28519891  0.66640990  0.26331554  1.0
  F  F3480  1  0.28519891  0.74333297  0.26331554  1.0
  F  F3481  1  0.28519891  0.82025605  0.26331554  1.0
  F  F3482  1  0.28519891  0.89717913  0.26331554  1.0
  F  F3483  1  0.28519891  0.97410221  0.26331554  1.0
  F  F3484  1  0.37610800  0.05102528  0.26331554  1.0
  F  F3485  1  0.37610800  0.12794836  0.26331554  1.0
  F  F3486  1  0.37610800  0.20487144  0.26331554  1.0
  F  F3487  1  0.37610800  0.28179451  0.26331554  1.0
  F  F3488  1  0.37610800  0.35871759  0.26331554  1.0
  F  F3489  1  0.37610800  0.43564067  0.26331554  1.0
  F  F3490  1  0.37610800  0.51256374  0.26331554  1.0
  F  F3491  1  0.37610800  0.58948682  0.26331554  1.0
  F  F3492  1  0.37610800  0.66640990  0.26331554  1.0
  F  F3493  1  0.37610800  0.74333297  0.26331554  1.0
  F  F3494  1  0.37610800  0.82025605  0.26331554  1.0
  F  F3495  1  0.37610800  0.89717913  0.26331554  1.0
  F  F3496  1  0.37610800  0.97410221  0.26331554  1.0
  F  F3497  1  0.46701709  0.05102528  0.26331554  1.0
  F  F3498  1  0.46701709  0.12794836  0.26331554  1.0
  F  F3499  1  0.46701709  0.20487144  0.26331554  1.0
  F  F3500  1  0.46701709  0.28179451  0.26331554  1.0
  F  F3501  1  0.46701709  0.35871759  0.26331554  1.0
  F  F3502  1  0.46701709  0.43564067  0.26331554  1.0
  F  F3503  1  0.46701709  0.51256374  0.26331554  1.0
  F  F3504  1  0.46701709  0.58948682  0.26331554  1.0
  F  F3505  1  0.46701709  0.66640990  0.26331554  1.0
  F  F3506  1  0.46701709  0.74333297  0.26331554  1.0
  F  F3507  1  0.46701709  0.82025605  0.26331554  1.0
  F  F3508  1  0.46701709  0.89717913  0.26331554  1.0
  F  F3509  1  0.46701709  0.97410221  0.26331554  1.0
  F  F3510  1  0.55792618  0.05102528  0.26331554  1.0
  F  F3511  1  0.55792618  0.12794836  0.26331554  1.0
  F  F3512  1  0.55792618  0.20487144  0.26331554  1.0
  F  F3513  1  0.55792618  0.28179451  0.26331554  1.0
  F  F3514  1  0.55792618  0.35871759  0.26331554  1.0
  F  F3515  1  0.55792618  0.43564067  0.26331554  1.0
  F  F3516  1  0.55792618  0.51256374  0.26331554  1.0
  F  F3517  1  0.55792618  0.58948682  0.26331554  1.0
  F  F3518  1  0.55792618  0.66640990  0.26331554  1.0
  F  F3519  1  0.55792618  0.74333297  0.26331554  1.0
  F  F3520  1  0.55792618  0.82025605  0.26331554  1.0
  F  F3521  1  0.55792618  0.89717913  0.26331554  1.0
  F  F3522  1  0.55792618  0.97410221  0.26331554  1.0
  F  F3523  1  0.64883527  0.05102528  0.26331554  1.0
  F  F3524  1  0.64883527  0.12794836  0.26331554  1.0
  F  F3525  1  0.64883527  0.20487144  0.26331554  1.0
  F  F3526  1  0.64883527  0.28179451  0.26331554  1.0
  F  F3527  1  0.64883527  0.35871759  0.26331554  1.0
  F  F3528  1  0.64883527  0.43564067  0.26331554  1.0
  F  F3529  1  0.64883527  0.51256374  0.26331554  1.0
  F  F3530  1  0.64883527  0.58948682  0.26331554  1.0
  F  F3531  1  0.64883527  0.66640990  0.26331554  1.0
  F  F3532  1  0.64883527  0.74333297  0.26331554  1.0
  F  F3533  1  0.64883527  0.82025605  0.26331554  1.0
  F  F3534  1  0.64883527  0.89717913  0.26331554  1.0
  F  F3535  1  0.64883527  0.97410221  0.26331554  1.0
  F  F3536  1  0.73974436  0.05102528  0.26331554  1.0
  F  F3537  1  0.73974436  0.12794836  0.26331554  1.0
  F  F3538  1  0.73974436  0.20487144  0.26331554  1.0
  F  F3539  1  0.73974436  0.28179451  0.26331554  1.0
  F  F3540  1  0.73974436  0.35871759  0.26331554  1.0
  F  F3541  1  0.73974436  0.43564067  0.26331554  1.0
  F  F3542  1  0.73974436  0.51256374  0.26331554  1.0
  F  F3543  1  0.73974436  0.58948682  0.26331554  1.0
  F  F3544  1  0.73974436  0.66640990  0.26331554  1.0
  F  F3545  1  0.73974436  0.74333297  0.26331554  1.0
  F  F3546  1  0.73974436  0.82025605  0.26331554  1.0
  F  F3547  1  0.73974436  0.89717913  0.26331554  1.0
  F  F3548  1  0.73974436  0.97410221  0.26331554  1.0
  F  F3549  1  0.83065346  0.05102528  0.26331554  1.0
  F  F3550  1  0.83065346  0.12794836  0.26331554  1.0
  F  F3551  1  0.83065346  0.20487144  0.26331554  1.0
  F  F3552  1  0.83065346  0.28179451  0.26331554  1.0
  F  F3553  1  0.83065346  0.35871759  0.26331554  1.0
  F  F3554  1  0.83065346  0.43564067  0.26331554  1.0
  F  F3555  1  0.83065346  0.51256374  0.26331554  1.0
  F  F3556  1  0.83065346  0.58948682  0.26331554  1.0
  F  F3557  1  0.83065346  0.66640990  0.26331554  1.0
  F  F3558  1  0.83065346  0.74333297  0.26331554  1.0
  F  F3559  1  0.83065346  0.82025605  0.26331554  1.0
  F  F3560  1  0.83065346  0.89717913  0.26331554  1.0
  F  F3561  1  0.83065346  0.97410221  0.26331554  1.0
  F  F3562  1  0.92156255  0.05102528  0.26331554  1.0
  F  F3563  1  0.92156255  0.12794836  0.26331554  1.0
  F  F3564  1  0.92156255  0.20487144  0.26331554  1.0
  F  F3565  1  0.92156255  0.28179451  0.26331554  1.0
  F  F3566  1  0.92156255  0.35871759  0.26331554  1.0
  F  F3567  1  0.92156255  0.43564067  0.26331554  1.0
  F  F3568  1  0.92156255  0.51256374  0.26331554  1.0
  F  F3569  1  0.92156255  0.58948682  0.26331554  1.0
  F  F3570  1  0.92156255  0.66640990  0.26331554  1.0
  F  F3571  1  0.92156255  0.74333297  0.26331554  1.0
  F  F3572  1  0.92156255  0.82025605  0.26331554  1.0
  F  F3573  1  0.92156255  0.89717913  0.26331554  1.0
  F  F3574  1  0.92156255  0.97410221  0.26331554  1.0
  F  F3575  1  0.04277467  0.07666631  0.32998221  1.0
  F  F3576  1  0.04277467  0.15358939  0.32998221  1.0
  F  F3577  1  0.04277467  0.23051246  0.32998221  1.0
  F  F3578  1  0.04277467  0.30743554  0.32998221  1.0
  F  F3579  1  0.04277467  0.38435862  0.32998221  1.0
  F  F3580  1  0.04277467  0.46128169  0.32998221  1.0
  F  F3581  1  0.04277467  0.53820477  0.32998221  1.0
  F  F3582  1  0.04277467  0.61512785  0.32998221  1.0
  F  F3583  1  0.04277467  0.69205092  0.32998221  1.0
  F  F3584  1  0.04277467  0.76897400  0.32998221  1.0
  F  F3585  1  0.04277467  0.84589708  0.32998221  1.0
  F  F3586  1  0.04277467  0.92282015  0.32998221  1.0
  F  F3587  1  0.04277467  0.99974323  0.32998221  1.0
  F  F3588  1  0.13368376  0.07666631  0.32998221  1.0
  F  F3589  1  0.13368376  0.15358939  0.32998221  1.0
  F  F3590  1  0.13368376  0.23051246  0.32998221  1.0
  F  F3591  1  0.13368376  0.30743554  0.32998221  1.0
  F  F3592  1  0.13368376  0.38435862  0.32998221  1.0
  F  F3593  1  0.13368376  0.46128169  0.32998221  1.0
  F  F3594  1  0.13368376  0.53820477  0.32998221  1.0
  F  F3595  1  0.13368376  0.61512785  0.32998221  1.0
  F  F3596  1  0.13368376  0.69205092  0.32998221  1.0
  F  F3597  1  0.13368376  0.76897400  0.32998221  1.0
  F  F3598  1  0.13368376  0.84589708  0.32998221  1.0
  F  F3599  1  0.13368376  0.92282015  0.32998221  1.0
  F  F3600  1  0.13368376  0.99974323  0.32998221  1.0
  F  F3601  1  0.22459285  0.07666631  0.32998221  1.0
  F  F3602  1  0.22459285  0.15358939  0.32998221  1.0
  F  F3603  1  0.22459285  0.23051246  0.32998221  1.0
  F  F3604  1  0.22459285  0.30743554  0.32998221  1.0
  F  F3605  1  0.22459285  0.38435862  0.32998221  1.0
  F  F3606  1  0.22459285  0.46128169  0.32998221  1.0
  F  F3607  1  0.22459285  0.53820477  0.32998221  1.0
  F  F3608  1  0.22459285  0.61512785  0.32998221  1.0
  F  F3609  1  0.22459285  0.69205092  0.32998221  1.0
  F  F3610  1  0.22459285  0.76897400  0.32998221  1.0
  F  F3611  1  0.22459285  0.84589708  0.32998221  1.0
  F  F3612  1  0.22459285  0.92282015  0.32998221  1.0
  F  F3613  1  0.22459285  0.99974323  0.32998221  1.0
  F  F3614  1  0.31550194  0.07666631  0.32998221  1.0
  F  F3615  1  0.31550194  0.15358939  0.32998221  1.0
  F  F3616  1  0.31550194  0.23051246  0.32998221  1.0
  F  F3617  1  0.31550194  0.30743554  0.32998221  1.0
  F  F3618  1  0.31550194  0.38435862  0.32998221  1.0
  F  F3619  1  0.31550194  0.46128169  0.32998221  1.0
  F  F3620  1  0.31550194  0.53820477  0.32998221  1.0
  F  F3621  1  0.31550194  0.61512785  0.32998221  1.0
  F  F3622  1  0.31550194  0.69205092  0.32998221  1.0
  F  F3623  1  0.31550194  0.76897400  0.32998221  1.0
  F  F3624  1  0.31550194  0.84589708  0.32998221  1.0
  F  F3625  1  0.31550194  0.92282015  0.32998221  1.0
  F  F3626  1  0.31550194  0.99974323  0.32998221  1.0
  F  F3627  1  0.40641103  0.07666631  0.32998221  1.0
  F  F3628  1  0.40641103  0.15358939  0.32998221  1.0
  F  F3629  1  0.40641103  0.23051246  0.32998221  1.0
  F  F3630  1  0.40641103  0.30743554  0.32998221  1.0
  F  F3631  1  0.40641103  0.38435862  0.32998221  1.0
  F  F3632  1  0.40641103  0.46128169  0.32998221  1.0
  F  F3633  1  0.40641103  0.53820477  0.32998221  1.0
  F  F3634  1  0.40641103  0.61512785  0.32998221  1.0
  F  F3635  1  0.40641103  0.69205092  0.32998221  1.0
  F  F3636  1  0.40641103  0.76897400  0.32998221  1.0
  F  F3637  1  0.40641103  0.84589708  0.32998221  1.0
  F  F3638  1  0.40641103  0.92282015  0.32998221  1.0
  F  F3639  1  0.40641103  0.99974323  0.32998221  1.0
  F  F3640  1  0.49732012  0.07666631  0.32998221  1.0
  F  F3641  1  0.49732012  0.15358939  0.32998221  1.0
  F  F3642  1  0.49732012  0.23051246  0.32998221  1.0
  F  F3643  1  0.49732012  0.30743554  0.32998221  1.0
  F  F3644  1  0.49732012  0.38435862  0.32998221  1.0
  F  F3645  1  0.49732012  0.46128169  0.32998221  1.0
  F  F3646  1  0.49732012  0.53820477  0.32998221  1.0
  F  F3647  1  0.49732012  0.61512785  0.32998221  1.0
  F  F3648  1  0.49732012  0.69205092  0.32998221  1.0
  F  F3649  1  0.49732012  0.76897400  0.32998221  1.0
  F  F3650  1  0.49732012  0.84589708  0.32998221  1.0
  F  F3651  1  0.49732012  0.92282015  0.32998221  1.0
  F  F3652  1  0.49732012  0.99974323  0.32998221  1.0
  F  F3653  1  0.58822921  0.07666631  0.32998221  1.0
  F  F3654  1  0.58822921  0.15358939  0.32998221  1.0
  F  F3655  1  0.58822921  0.23051246  0.32998221  1.0
  F  F3656  1  0.58822921  0.30743554  0.32998221  1.0
  F  F3657  1  0.58822921  0.38435862  0.32998221  1.0
  F  F3658  1  0.58822921  0.46128169  0.32998221  1.0
  F  F3659  1  0.58822921  0.53820477  0.32998221  1.0
  F  F3660  1  0.58822921  0.61512785  0.32998221  1.0
  F  F3661  1  0.58822921  0.69205092  0.32998221  1.0
  F  F3662  1  0.58822921  0.76897400  0.32998221  1.0
  F  F3663  1  0.58822921  0.84589708  0.32998221  1.0
  F  F3664  1  0.58822921  0.92282015  0.32998221  1.0
  F  F3665  1  0.58822921  0.99974323  0.32998221  1.0
  F  F3666  1  0.67913830  0.07666631  0.32998221  1.0
  F  F3667  1  0.67913830  0.15358939  0.32998221  1.0
  F  F3668  1  0.67913830  0.23051246  0.32998221  1.0
  F  F3669  1  0.67913830  0.30743554  0.32998221  1.0
  F  F3670  1  0.67913830  0.38435862  0.32998221  1.0
  F  F3671  1  0.67913830  0.46128169  0.32998221  1.0
  F  F3672  1  0.67913830  0.53820477  0.32998221  1.0
  F  F3673  1  0.67913830  0.61512785  0.32998221  1.0
  F  F3674  1  0.67913830  0.69205092  0.32998221  1.0
  F  F3675  1  0.67913830  0.76897400  0.32998221  1.0
  F  F3676  1  0.67913830  0.84589708  0.32998221  1.0
  F  F3677  1  0.67913830  0.92282015  0.32998221  1.0
  F  F3678  1  0.67913830  0.99974323  0.32998221  1.0
  F  F3679  1  0.77004740  0.07666631  0.32998221  1.0
  F  F3680  1  0.77004740  0.15358939  0.32998221  1.0
  F  F3681  1  0.77004740  0.23051246  0.32998221  1.0
  F  F3682  1  0.77004740  0.30743554  0.32998221  1.0
  F  F3683  1  0.77004740  0.38435862  0.32998221  1.0
  F  F3684  1  0.77004740  0.46128169  0.32998221  1.0
  F  F3685  1  0.77004740  0.53820477  0.32998221  1.0
  F  F3686  1  0.77004740  0.61512785  0.32998221  1.0
  F  F3687  1  0.77004740  0.69205092  0.32998221  1.0
  F  F3688  1  0.77004740  0.76897400  0.32998221  1.0
  F  F3689  1  0.77004740  0.84589708  0.32998221  1.0
  F  F3690  1  0.77004740  0.92282015  0.32998221  1.0
  F  F3691  1  0.77004740  0.99974323  0.32998221  1.0
  F  F3692  1  0.86095649  0.07666631  0.32998221  1.0
  F  F3693  1  0.86095649  0.15358939  0.32998221  1.0
  F  F3694  1  0.86095649  0.23051246  0.32998221  1.0
  F  F3695  1  0.86095649  0.30743554  0.32998221  1.0
  F  F3696  1  0.86095649  0.38435862  0.32998221  1.0
  F  F3697  1  0.86095649  0.46128169  0.32998221  1.0
  F  F3698  1  0.86095649  0.53820477  0.32998221  1.0
  F  F3699  1  0.86095649  0.61512785  0.32998221  1.0
  F  F3700  1  0.86095649  0.69205092  0.32998221  1.0
  F  F3701  1  0.86095649  0.76897400  0.32998221  1.0
  F  F3702  1  0.86095649  0.84589708  0.32998221  1.0
  F  F3703  1  0.86095649  0.92282015  0.32998221  1.0
  F  F3704  1  0.86095649  0.99974323  0.32998221  1.0
  F  F3705  1  0.95186558  0.07666631  0.32998221  1.0
  F  F3706  1  0.95186558  0.15358939  0.32998221  1.0
  F  F3707  1  0.95186558  0.23051246  0.32998221  1.0
  F  F3708  1  0.95186558  0.30743554  0.32998221  1.0
  F  F3709  1  0.95186558  0.38435862  0.32998221  1.0
  F  F3710  1  0.95186558  0.46128169  0.32998221  1.0
  F  F3711  1  0.95186558  0.53820477  0.32998221  1.0
  F  F3712  1  0.95186558  0.61512785  0.32998221  1.0
  F  F3713  1  0.95186558  0.69205092  0.32998221  1.0
  F  F3714  1  0.95186558  0.76897400  0.32998221  1.0
  F  F3715  1  0.95186558  0.84589708  0.32998221  1.0
  F  F3716  1  0.95186558  0.92282015  0.32998221  1.0
  F  F3717  1  0.95186558  0.99974323  0.32998221  1.0
  F  F3718  1  0.07307770  0.02538426  0.39664887  1.0
  F  F3719  1  0.07307770  0.10230733  0.39664887  1.0
  F  F3720  1  0.07307770  0.17923041  0.39664887  1.0
  F  F3721  1  0.07307770  0.25615349  0.39664887  1.0
  F  F3722  1  0.07307770  0.33307656  0.39664887  1.0
  F  F3723  1  0.07307770  0.40999964  0.39664887  1.0
  F  F3724  1  0.07307770  0.48692272  0.39664887  1.0
  F  F3725  1  0.07307770  0.56384580  0.39664887  1.0
  F  F3726  1  0.07307770  0.64076887  0.39664887  1.0
  F  F3727  1  0.07307770  0.71769195  0.39664887  1.0
  F  F3728  1  0.07307770  0.79461503  0.39664887  1.0
  F  F3729  1  0.07307770  0.87153810  0.39664887  1.0
  F  F3730  1  0.07307770  0.94846118  0.39664887  1.0
  F  F3731  1  0.16398679  0.02538426  0.39664887  1.0
  F  F3732  1  0.16398679  0.10230733  0.39664887  1.0
  F  F3733  1  0.16398679  0.17923041  0.39664887  1.0
  F  F3734  1  0.16398679  0.25615349  0.39664887  1.0
  F  F3735  1  0.16398679  0.33307656  0.39664887  1.0
  F  F3736  1  0.16398679  0.40999964  0.39664887  1.0
  F  F3737  1  0.16398679  0.48692272  0.39664887  1.0
  F  F3738  1  0.16398679  0.56384580  0.39664887  1.0
  F  F3739  1  0.16398679  0.64076887  0.39664887  1.0
  F  F3740  1  0.16398679  0.71769195  0.39664887  1.0
  F  F3741  1  0.16398679  0.79461503  0.39664887  1.0
  F  F3742  1  0.16398679  0.87153810  0.39664887  1.0
  F  F3743  1  0.16398679  0.94846118  0.39664887  1.0
  F  F3744  1  0.25489588  0.02538426  0.39664887  1.0
  F  F3745  1  0.25489588  0.10230733  0.39664887  1.0
  F  F3746  1  0.25489588  0.17923041  0.39664887  1.0
  F  F3747  1  0.25489588  0.25615349  0.39664887  1.0
  F  F3748  1  0.25489588  0.33307656  0.39664887  1.0
  F  F3749  1  0.25489588  0.40999964  0.39664887  1.0
  F  F3750  1  0.25489588  0.48692272  0.39664887  1.0
  F  F3751  1  0.25489588  0.56384580  0.39664887  1.0
  F  F3752  1  0.25489588  0.64076887  0.39664887  1.0
  F  F3753  1  0.25489588  0.71769195  0.39664887  1.0
  F  F3754  1  0.25489588  0.79461503  0.39664887  1.0
  F  F3755  1  0.25489588  0.87153810  0.39664887  1.0
  F  F3756  1  0.25489588  0.94846118  0.39664887  1.0
  F  F3757  1  0.34580497  0.02538426  0.39664887  1.0
  F  F3758  1  0.34580497  0.10230733  0.39664887  1.0
  F  F3759  1  0.34580497  0.17923041  0.39664887  1.0
  F  F3760  1  0.34580497  0.25615349  0.39664887  1.0
  F  F3761  1  0.34580497  0.33307656  0.39664887  1.0
  F  F3762  1  0.34580497  0.40999964  0.39664887  1.0
  F  F3763  1  0.34580497  0.48692272  0.39664887  1.0
  F  F3764  1  0.34580497  0.56384580  0.39664887  1.0
  F  F3765  1  0.34580497  0.64076887  0.39664887  1.0
  F  F3766  1  0.34580497  0.71769195  0.39664887  1.0
  F  F3767  1  0.34580497  0.79461503  0.39664887  1.0
  F  F3768  1  0.34580497  0.87153810  0.39664887  1.0
  F  F3769  1  0.34580497  0.94846118  0.39664887  1.0
  F  F3770  1  0.43671406  0.02538426  0.39664887  1.0
  F  F3771  1  0.43671406  0.10230733  0.39664887  1.0
  F  F3772  1  0.43671406  0.17923041  0.39664887  1.0
  F  F3773  1  0.43671406  0.25615349  0.39664887  1.0
  F  F3774  1  0.43671406  0.33307656  0.39664887  1.0
  F  F3775  1  0.43671406  0.40999964  0.39664887  1.0
  F  F3776  1  0.43671406  0.48692272  0.39664887  1.0
  F  F3777  1  0.43671406  0.56384580  0.39664887  1.0
  F  F3778  1  0.43671406  0.64076887  0.39664887  1.0
  F  F3779  1  0.43671406  0.71769195  0.39664887  1.0
  F  F3780  1  0.43671406  0.79461503  0.39664887  1.0
  F  F3781  1  0.43671406  0.87153810  0.39664887  1.0
  F  F3782  1  0.43671406  0.94846118  0.39664887  1.0
  F  F3783  1  0.52762315  0.02538426  0.39664887  1.0
  F  F3784  1  0.52762315  0.10230733  0.39664887  1.0
  F  F3785  1  0.52762315  0.17923041  0.39664887  1.0
  F  F3786  1  0.52762315  0.25615349  0.39664887  1.0
  F  F3787  1  0.52762315  0.33307656  0.39664887  1.0
  F  F3788  1  0.52762315  0.40999964  0.39664887  1.0
  F  F3789  1  0.52762315  0.48692272  0.39664887  1.0
  F  F3790  1  0.52762315  0.56384580  0.39664887  1.0
  F  F3791  1  0.52762315  0.64076887  0.39664887  1.0
  F  F3792  1  0.52762315  0.71769195  0.39664887  1.0
  F  F3793  1  0.52762315  0.79461503  0.39664887  1.0
  F  F3794  1  0.52762315  0.87153810  0.39664887  1.0
  F  F3795  1  0.52762315  0.94846118  0.39664887  1.0
  F  F3796  1  0.61853224  0.02538426  0.39664887  1.0
  F  F3797  1  0.61853224  0.10230733  0.39664887  1.0
  F  F3798  1  0.61853224  0.17923041  0.39664887  1.0
  F  F3799  1  0.61853224  0.25615349  0.39664887  1.0
  F  F3800  1  0.61853224  0.33307656  0.39664887  1.0
  F  F3801  1  0.61853224  0.40999964  0.39664887  1.0
  F  F3802  1  0.61853224  0.48692272  0.39664887  1.0
  F  F3803  1  0.61853224  0.56384580  0.39664887  1.0
  F  F3804  1  0.61853224  0.64076887  0.39664887  1.0
  F  F3805  1  0.61853224  0.71769195  0.39664887  1.0
  F  F3806  1  0.61853224  0.79461503  0.39664887  1.0
  F  F3807  1  0.61853224  0.87153810  0.39664887  1.0
  F  F3808  1  0.61853224  0.94846118  0.39664887  1.0
  F  F3809  1  0.70944133  0.02538426  0.39664887  1.0
  F  F3810  1  0.70944133  0.10230733  0.39664887  1.0
  F  F3811  1  0.70944133  0.17923041  0.39664887  1.0
  F  F3812  1  0.70944133  0.25615349  0.39664887  1.0
  F  F3813  1  0.70944133  0.33307656  0.39664887  1.0
  F  F3814  1  0.70944133  0.40999964  0.39664887  1.0
  F  F3815  1  0.70944133  0.48692272  0.39664887  1.0
  F  F3816  1  0.70944133  0.56384580  0.39664887  1.0
  F  F3817  1  0.70944133  0.64076887  0.39664887  1.0
  F  F3818  1  0.70944133  0.71769195  0.39664887  1.0
  F  F3819  1  0.70944133  0.79461503  0.39664887  1.0
  F  F3820  1  0.70944133  0.87153810  0.39664887  1.0
  F  F3821  1  0.70944133  0.94846118  0.39664887  1.0
  F  F3822  1  0.80035043  0.02538426  0.39664887  1.0
  F  F3823  1  0.80035043  0.10230733  0.39664887  1.0
  F  F3824  1  0.80035043  0.17923041  0.39664887  1.0
  F  F3825  1  0.80035043  0.25615349  0.39664887  1.0
  F  F3826  1  0.80035043  0.33307656  0.39664887  1.0
  F  F3827  1  0.80035043  0.40999964  0.39664887  1.0
  F  F3828  1  0.80035043  0.48692272  0.39664887  1.0
  F  F3829  1  0.80035043  0.56384580  0.39664887  1.0
  F  F3830  1  0.80035043  0.64076887  0.39664887  1.0
  F  F3831  1  0.80035043  0.71769195  0.39664887  1.0
  F  F3832  1  0.80035043  0.79461503  0.39664887  1.0
  F  F3833  1  0.80035043  0.87153810  0.39664887  1.0
  F  F3834  1  0.80035043  0.94846118  0.39664887  1.0
  F  F3835  1  0.89125952  0.02538426  0.39664887  1.0
  F  F3836  1  0.89125952  0.10230733  0.39664887  1.0
  F  F3837  1  0.89125952  0.17923041  0.39664887  1.0
  F  F3838  1  0.89125952  0.25615349  0.39664887  1.0
  F  F3839  1  0.89125952  0.33307656  0.39664887  1.0
  F  F3840  1  0.89125952  0.40999964  0.39664887  1.0
  F  F3841  1  0.89125952  0.48692272  0.39664887  1.0
  F  F3842  1  0.89125952  0.56384580  0.39664887  1.0
  F  F3843  1  0.89125952  0.64076887  0.39664887  1.0
  F  F3844  1  0.89125952  0.71769195  0.39664887  1.0
  F  F3845  1  0.89125952  0.79461503  0.39664887  1.0
  F  F3846  1  0.89125952  0.87153810  0.39664887  1.0
  F  F3847  1  0.89125952  0.94846118  0.39664887  1.0
  F  F3848  1  0.98216861  0.02538426  0.39664887  1.0
  F  F3849  1  0.98216861  0.10230733  0.39664887  1.0
  F  F3850  1  0.98216861  0.17923041  0.39664887  1.0
  F  F3851  1  0.98216861  0.25615349  0.39664887  1.0
  F  F3852  1  0.98216861  0.33307656  0.39664887  1.0
  F  F3853  1  0.98216861  0.40999964  0.39664887  1.0
  F  F3854  1  0.98216861  0.48692272  0.39664887  1.0
  F  F3855  1  0.98216861  0.56384580  0.39664887  1.0
  F  F3856  1  0.98216861  0.64076887  0.39664887  1.0
  F  F3857  1  0.98216861  0.71769195  0.39664887  1.0
  F  F3858  1  0.98216861  0.79461503  0.39664887  1.0
  F  F3859  1  0.98216861  0.87153810  0.39664887  1.0
  F  F3860  1  0.98216861  0.94846118  0.39664887  1.0
  F  F3861  1  0.01394620  0.01183601  0.26194826  1.0
  F  F3862  1  0.01394620  0.08875909  0.26194826  1.0
  F  F3863  1  0.01394620  0.16568216  0.26194826  1.0
  F  F3864  1  0.01394620  0.24260524  0.26194826  1.0
  F  F3865  1  0.01394620  0.31952832  0.26194826  1.0
  F  F3866  1  0.01394620  0.39645139  0.26194826  1.0
  F  F3867  1  0.01394620  0.47337447  0.26194826  1.0
  F  F3868  1  0.01394620  0.55029755  0.26194826  1.0
  F  F3869  1  0.01394620  0.62722062  0.26194826  1.0
  F  F3870  1  0.01394620  0.70414370  0.26194826  1.0
  F  F3871  1  0.01394620  0.78106678  0.26194826  1.0
  F  F3872  1  0.01394620  0.85798986  0.26194826  1.0
  F  F3873  1  0.01394620  0.93491293  0.26194826  1.0
  F  F3874  1  0.10485529  0.01183601  0.26194826  1.0
  F  F3875  1  0.10485529  0.08875909  0.26194826  1.0
  F  F3876  1  0.10485529  0.16568216  0.26194826  1.0
  F  F3877  1  0.10485529  0.24260524  0.26194826  1.0
  F  F3878  1  0.10485529  0.31952832  0.26194826  1.0
  F  F3879  1  0.10485529  0.39645139  0.26194826  1.0
  F  F3880  1  0.10485529  0.47337447  0.26194826  1.0
  F  F3881  1  0.10485529  0.55029755  0.26194826  1.0
  F  F3882  1  0.10485529  0.62722062  0.26194826  1.0
  F  F3883  1  0.10485529  0.70414370  0.26194826  1.0
  F  F3884  1  0.10485529  0.78106678  0.26194826  1.0
  F  F3885  1  0.10485529  0.85798986  0.26194826  1.0
  F  F3886  1  0.10485529  0.93491293  0.26194826  1.0
  F  F3887  1  0.19576438  0.01183601  0.26194826  1.0
  F  F3888  1  0.19576438  0.08875909  0.26194826  1.0
  F  F3889  1  0.19576438  0.16568216  0.26194826  1.0
  F  F3890  1  0.19576438  0.24260524  0.26194826  1.0
  F  F3891  1  0.19576438  0.31952832  0.26194826  1.0
  F  F3892  1  0.19576438  0.39645139  0.26194826  1.0
  F  F3893  1  0.19576438  0.47337447  0.26194826  1.0
  F  F3894  1  0.19576438  0.55029755  0.26194826  1.0
  F  F3895  1  0.19576438  0.62722062  0.26194826  1.0
  F  F3896  1  0.19576438  0.70414370  0.26194826  1.0
  F  F3897  1  0.19576438  0.78106678  0.26194826  1.0
  F  F3898  1  0.19576438  0.85798986  0.26194826  1.0
  F  F3899  1  0.19576438  0.93491293  0.26194826  1.0
  F  F3900  1  0.28667347  0.01183601  0.26194826  1.0
  F  F3901  1  0.28667347  0.08875909  0.26194826  1.0
  F  F3902  1  0.28667347  0.16568216  0.26194826  1.0
  F  F3903  1  0.28667347  0.24260524  0.26194826  1.0
  F  F3904  1  0.28667347  0.31952832  0.26194826  1.0
  F  F3905  1  0.28667347  0.39645139  0.26194826  1.0
  F  F3906  1  0.28667347  0.47337447  0.26194826  1.0
  F  F3907  1  0.28667347  0.55029755  0.26194826  1.0
  F  F3908  1  0.28667347  0.62722062  0.26194826  1.0
  F  F3909  1  0.28667347  0.70414370  0.26194826  1.0
  F  F3910  1  0.28667347  0.78106678  0.26194826  1.0
  F  F3911  1  0.28667347  0.85798986  0.26194826  1.0
  F  F3912  1  0.28667347  0.93491293  0.26194826  1.0
  F  F3913  1  0.37758256  0.01183601  0.26194826  1.0
  F  F3914  1  0.37758256  0.08875909  0.26194826  1.0
  F  F3915  1  0.37758256  0.16568216  0.26194826  1.0
  F  F3916  1  0.37758256  0.24260524  0.26194826  1.0
  F  F3917  1  0.37758256  0.31952832  0.26194826  1.0
  F  F3918  1  0.37758256  0.39645139  0.26194826  1.0
  F  F3919  1  0.37758256  0.47337447  0.26194826  1.0
  F  F3920  1  0.37758256  0.55029755  0.26194826  1.0
  F  F3921  1  0.37758256  0.62722062  0.26194826  1.0
  F  F3922  1  0.37758256  0.70414370  0.26194826  1.0
  F  F3923  1  0.37758256  0.78106678  0.26194826  1.0
  F  F3924  1  0.37758256  0.85798986  0.26194826  1.0
  F  F3925  1  0.37758256  0.93491293  0.26194826  1.0
  F  F3926  1  0.46849166  0.01183601  0.26194826  1.0
  F  F3927  1  0.46849166  0.08875909  0.26194826  1.0
  F  F3928  1  0.46849166  0.16568216  0.26194826  1.0
  F  F3929  1  0.46849166  0.24260524  0.26194826  1.0
  F  F3930  1  0.46849166  0.31952832  0.26194826  1.0
  F  F3931  1  0.46849166  0.39645139  0.26194826  1.0
  F  F3932  1  0.46849166  0.47337447  0.26194826  1.0
  F  F3933  1  0.46849166  0.55029755  0.26194826  1.0
  F  F3934  1  0.46849166  0.62722062  0.26194826  1.0
  F  F3935  1  0.46849166  0.70414370  0.26194826  1.0
  F  F3936  1  0.46849166  0.78106678  0.26194826  1.0
  F  F3937  1  0.46849166  0.85798986  0.26194826  1.0
  F  F3938  1  0.46849166  0.93491293  0.26194826  1.0
  F  F3939  1  0.55940075  0.01183601  0.26194826  1.0
  F  F3940  1  0.55940075  0.08875909  0.26194826  1.0
  F  F3941  1  0.55940075  0.16568216  0.26194826  1.0
  F  F3942  1  0.55940075  0.24260524  0.26194826  1.0
  F  F3943  1  0.55940075  0.31952832  0.26194826  1.0
  F  F3944  1  0.55940075  0.39645139  0.26194826  1.0
  F  F3945  1  0.55940075  0.47337447  0.26194826  1.0
  F  F3946  1  0.55940075  0.55029755  0.26194826  1.0
  F  F3947  1  0.55940075  0.62722062  0.26194826  1.0
  F  F3948  1  0.55940075  0.70414370  0.26194826  1.0
  F  F3949  1  0.55940075  0.78106678  0.26194826  1.0
  F  F3950  1  0.55940075  0.85798986  0.26194826  1.0
  F  F3951  1  0.55940075  0.93491293  0.26194826  1.0
  F  F3952  1  0.65030984  0.01183601  0.26194826  1.0
  F  F3953  1  0.65030984  0.08875909  0.26194826  1.0
  F  F3954  1  0.65030984  0.16568216  0.26194826  1.0
  F  F3955  1  0.65030984  0.24260524  0.26194826  1.0
  F  F3956  1  0.65030984  0.31952832  0.26194826  1.0
  F  F3957  1  0.65030984  0.39645139  0.26194826  1.0
  F  F3958  1  0.65030984  0.47337447  0.26194826  1.0
  F  F3959  1  0.65030984  0.55029755  0.26194826  1.0
  F  F3960  1  0.65030984  0.62722062  0.26194826  1.0
  F  F3961  1  0.65030984  0.70414370  0.26194826  1.0
  F  F3962  1  0.65030984  0.78106678  0.26194826  1.0
  F  F3963  1  0.65030984  0.85798986  0.26194826  1.0
  F  F3964  1  0.65030984  0.93491293  0.26194826  1.0
  F  F3965  1  0.74121893  0.01183601  0.26194826  1.0
  F  F3966  1  0.74121893  0.08875909  0.26194826  1.0
  F  F3967  1  0.74121893  0.16568216  0.26194826  1.0
  F  F3968  1  0.74121893  0.24260524  0.26194826  1.0
  F  F3969  1  0.74121893  0.31952832  0.26194826  1.0
  F  F3970  1  0.74121893  0.39645139  0.26194826  1.0
  F  F3971  1  0.74121893  0.47337447  0.26194826  1.0
  F  F3972  1  0.74121893  0.55029755  0.26194826  1.0
  F  F3973  1  0.74121893  0.62722062  0.26194826  1.0
  F  F3974  1  0.74121893  0.70414370  0.26194826  1.0
  F  F3975  1  0.74121893  0.78106678  0.26194826  1.0
  F  F3976  1  0.74121893  0.85798986  0.26194826  1.0
  F  F3977  1  0.74121893  0.93491293  0.26194826  1.0
  F  F3978  1  0.83212802  0.01183601  0.26194826  1.0
  F  F3979  1  0.83212802  0.08875909  0.26194826  1.0
  F  F3980  1  0.83212802  0.16568216  0.26194826  1.0
  F  F3981  1  0.83212802  0.24260524  0.26194826  1.0
  F  F3982  1  0.83212802  0.31952832  0.26194826  1.0
  F  F3983  1  0.83212802  0.39645139  0.26194826  1.0
  F  F3984  1  0.83212802  0.47337447  0.26194826  1.0
  F  F3985  1  0.83212802  0.55029755  0.26194826  1.0
  F  F3986  1  0.83212802  0.62722062  0.26194826  1.0
  F  F3987  1  0.83212802  0.70414370  0.26194826  1.0
  F  F3988  1  0.83212802  0.78106678  0.26194826  1.0
  F  F3989  1  0.83212802  0.85798986  0.26194826  1.0
  F  F3990  1  0.83212802  0.93491293  0.26194826  1.0
  F  F3991  1  0.92303711  0.01183601  0.26194826  1.0
  F  F3992  1  0.92303711  0.08875909  0.26194826  1.0
  F  F3993  1  0.92303711  0.16568216  0.26194826  1.0
  F  F3994  1  0.92303711  0.24260524  0.26194826  1.0
  F  F3995  1  0.92303711  0.31952832  0.26194826  1.0
  F  F3996  1  0.92303711  0.39645139  0.26194826  1.0
  F  F3997  1  0.92303711  0.47337447  0.26194826  1.0
  F  F3998  1  0.92303711  0.55029755  0.26194826  1.0
  F  F3999  1  0.92303711  0.62722062  0.26194826  1.0
  F  F4000  1  0.92303711  0.70414370  0.26194826  1.0
  F  F4001  1  0.92303711  0.78106678  0.26194826  1.0
  F  F4002  1  0.92303711  0.85798986  0.26194826  1.0
  F  F4003  1  0.92303711  0.93491293  0.26194826  1.0
  F  F4004  1  0.04424923  0.03747704  0.32861493  1.0
  F  F4005  1  0.04424923  0.11440011  0.32861493  1.0
  F  F4006  1  0.04424923  0.19132319  0.32861493  1.0
  F  F4007  1  0.04424923  0.26824627  0.32861493  1.0
  F  F4008  1  0.04424923  0.34516934  0.32861493  1.0
  F  F4009  1  0.04424923  0.42209242  0.32861493  1.0
  F  F4010  1  0.04424923  0.49901550  0.32861493  1.0
  F  F4011  1  0.04424923  0.57593857  0.32861493  1.0
  F  F4012  1  0.04424923  0.65286165  0.32861493  1.0
  F  F4013  1  0.04424923  0.72978473  0.32861493  1.0
  F  F4014  1  0.04424923  0.80670780  0.32861493  1.0
  F  F4015  1  0.04424923  0.88363088  0.32861493  1.0
  F  F4016  1  0.04424923  0.96055396  0.32861493  1.0
  F  F4017  1  0.13515832  0.03747704  0.32861493  1.0
  F  F4018  1  0.13515832  0.11440011  0.32861493  1.0
  F  F4019  1  0.13515832  0.19132319  0.32861493  1.0
  F  F4020  1  0.13515832  0.26824627  0.32861493  1.0
  F  F4021  1  0.13515832  0.34516934  0.32861493  1.0
  F  F4022  1  0.13515832  0.42209242  0.32861493  1.0
  F  F4023  1  0.13515832  0.49901550  0.32861493  1.0
  F  F4024  1  0.13515832  0.57593857  0.32861493  1.0
  F  F4025  1  0.13515832  0.65286165  0.32861493  1.0
  F  F4026  1  0.13515832  0.72978473  0.32861493  1.0
  F  F4027  1  0.13515832  0.80670780  0.32861493  1.0
  F  F4028  1  0.13515832  0.88363088  0.32861493  1.0
  F  F4029  1  0.13515832  0.96055396  0.32861493  1.0
  F  F4030  1  0.22606741  0.03747704  0.32861493  1.0
  F  F4031  1  0.22606741  0.11440011  0.32861493  1.0
  F  F4032  1  0.22606741  0.19132319  0.32861493  1.0
  F  F4033  1  0.22606741  0.26824627  0.32861493  1.0
  F  F4034  1  0.22606741  0.34516934  0.32861493  1.0
  F  F4035  1  0.22606741  0.42209242  0.32861493  1.0
  F  F4036  1  0.22606741  0.49901550  0.32861493  1.0
  F  F4037  1  0.22606741  0.57593857  0.32861493  1.0
  F  F4038  1  0.22606741  0.65286165  0.32861493  1.0
  F  F4039  1  0.22606741  0.72978473  0.32861493  1.0
  F  F4040  1  0.22606741  0.80670780  0.32861493  1.0
  F  F4041  1  0.22606741  0.88363088  0.32861493  1.0
  F  F4042  1  0.22606741  0.96055396  0.32861493  1.0
  F  F4043  1  0.31697650  0.03747704  0.32861493  1.0
  F  F4044  1  0.31697650  0.11440011  0.32861493  1.0
  F  F4045  1  0.31697650  0.19132319  0.32861493  1.0
  F  F4046  1  0.31697650  0.26824627  0.32861493  1.0
  F  F4047  1  0.31697650  0.34516934  0.32861493  1.0
  F  F4048  1  0.31697650  0.42209242  0.32861493  1.0
  F  F4049  1  0.31697650  0.49901550  0.32861493  1.0
  F  F4050  1  0.31697650  0.57593857  0.32861493  1.0
  F  F4051  1  0.31697650  0.65286165  0.32861493  1.0
  F  F4052  1  0.31697650  0.72978473  0.32861493  1.0
  F  F4053  1  0.31697650  0.80670780  0.32861493  1.0
  F  F4054  1  0.31697650  0.88363088  0.32861493  1.0
  F  F4055  1  0.31697650  0.96055396  0.32861493  1.0
  F  F4056  1  0.40788560  0.03747704  0.32861493  1.0
  F  F4057  1  0.40788560  0.11440011  0.32861493  1.0
  F  F4058  1  0.40788560  0.19132319  0.32861493  1.0
  F  F4059  1  0.40788560  0.26824627  0.32861493  1.0
  F  F4060  1  0.40788560  0.34516934  0.32861493  1.0
  F  F4061  1  0.40788560  0.42209242  0.32861493  1.0
  F  F4062  1  0.40788560  0.49901550  0.32861493  1.0
  F  F4063  1  0.40788560  0.57593857  0.32861493  1.0
  F  F4064  1  0.40788560  0.65286165  0.32861493  1.0
  F  F4065  1  0.40788560  0.72978473  0.32861493  1.0
  F  F4066  1  0.40788560  0.80670780  0.32861493  1.0
  F  F4067  1  0.40788560  0.88363088  0.32861493  1.0
  F  F4068  1  0.40788560  0.96055396  0.32861493  1.0
  F  F4069  1  0.49879469  0.03747704  0.32861493  1.0
  F  F4070  1  0.49879469  0.11440011  0.32861493  1.0
  F  F4071  1  0.49879469  0.19132319  0.32861493  1.0
  F  F4072  1  0.49879469  0.26824627  0.32861493  1.0
  F  F4073  1  0.49879469  0.34516934  0.32861493  1.0
  F  F4074  1  0.49879469  0.42209242  0.32861493  1.0
  F  F4075  1  0.49879469  0.49901550  0.32861493  1.0
  F  F4076  1  0.49879469  0.57593857  0.32861493  1.0
  F  F4077  1  0.49879469  0.65286165  0.32861493  1.0
  F  F4078  1  0.49879469  0.72978473  0.32861493  1.0
  F  F4079  1  0.49879469  0.80670780  0.32861493  1.0
  F  F4080  1  0.49879469  0.88363088  0.32861493  1.0
  F  F4081  1  0.49879469  0.96055396  0.32861493  1.0
  F  F4082  1  0.58970378  0.03747704  0.32861493  1.0
  F  F4083  1  0.58970378  0.11440011  0.32861493  1.0
  F  F4084  1  0.58970378  0.19132319  0.32861493  1.0
  F  F4085  1  0.58970378  0.26824627  0.32861493  1.0
  F  F4086  1  0.58970378  0.34516934  0.32861493  1.0
  F  F4087  1  0.58970378  0.42209242  0.32861493  1.0
  F  F4088  1  0.58970378  0.49901550  0.32861493  1.0
  F  F4089  1  0.58970378  0.57593857  0.32861493  1.0
  F  F4090  1  0.58970378  0.65286165  0.32861493  1.0
  F  F4091  1  0.58970378  0.72978473  0.32861493  1.0
  F  F4092  1  0.58970378  0.80670780  0.32861493  1.0
  F  F4093  1  0.58970378  0.88363088  0.32861493  1.0
  F  F4094  1  0.58970378  0.96055396  0.32861493  1.0
  F  F4095  1  0.68061287  0.03747704  0.32861493  1.0
  F  F4096  1  0.68061287  0.11440011  0.32861493  1.0
  F  F4097  1  0.68061287  0.19132319  0.32861493  1.0
  F  F4098  1  0.68061287  0.26824627  0.32861493  1.0
  F  F4099  1  0.68061287  0.34516934  0.32861493  1.0
  F  F4100  1  0.68061287  0.42209242  0.32861493  1.0
  F  F4101  1  0.68061287  0.49901550  0.32861493  1.0
  F  F4102  1  0.68061287  0.57593857  0.32861493  1.0
  F  F4103  1  0.68061287  0.65286165  0.32861493  1.0
  F  F4104  1  0.68061287  0.72978473  0.32861493  1.0
  F  F4105  1  0.68061287  0.80670780  0.32861493  1.0
  F  F4106  1  0.68061287  0.88363088  0.32861493  1.0
  F  F4107  1  0.68061287  0.96055396  0.32861493  1.0
  F  F4108  1  0.77152196  0.03747704  0.32861493  1.0
  F  F4109  1  0.77152196  0.11440011  0.32861493  1.0
  F  F4110  1  0.77152196  0.19132319  0.32861493  1.0
  F  F4111  1  0.77152196  0.26824627  0.32861493  1.0
  F  F4112  1  0.77152196  0.34516934  0.32861493  1.0
  F  F4113  1  0.77152196  0.42209242  0.32861493  1.0
  F  F4114  1  0.77152196  0.49901550  0.32861493  1.0
  F  F4115  1  0.77152196  0.57593857  0.32861493  1.0
  F  F4116  1  0.77152196  0.65286165  0.32861493  1.0
  F  F4117  1  0.77152196  0.72978473  0.32861493  1.0
  F  F4118  1  0.77152196  0.80670780  0.32861493  1.0
  F  F4119  1  0.77152196  0.88363088  0.32861493  1.0
  F  F4120  1  0.77152196  0.96055396  0.32861493  1.0
  F  F4121  1  0.86243105  0.03747704  0.32861493  1.0
  F  F4122  1  0.86243105  0.11440011  0.32861493  1.0
  F  F4123  1  0.86243105  0.19132319  0.32861493  1.0
  F  F4124  1  0.86243105  0.26824627  0.32861493  1.0
  F  F4125  1  0.86243105  0.34516934  0.32861493  1.0
  F  F4126  1  0.86243105  0.42209242  0.32861493  1.0
  F  F4127  1  0.86243105  0.49901550  0.32861493  1.0
  F  F4128  1  0.86243105  0.57593857  0.32861493  1.0
  F  F4129  1  0.86243105  0.65286165  0.32861493  1.0
  F  F4130  1  0.86243105  0.72978473  0.32861493  1.0
  F  F4131  1  0.86243105  0.80670780  0.32861493  1.0
  F  F4132  1  0.86243105  0.88363088  0.32861493  1.0
  F  F4133  1  0.86243105  0.96055396  0.32861493  1.0
  F  F4134  1  0.95334014  0.03747704  0.32861493  1.0
  F  F4135  1  0.95334014  0.11440011  0.32861493  1.0
  F  F4136  1  0.95334014  0.19132319  0.32861493  1.0
  F  F4137  1  0.95334014  0.26824627  0.32861493  1.0
  F  F4138  1  0.95334014  0.34516934  0.32861493  1.0
  F  F4139  1  0.95334014  0.42209242  0.32861493  1.0
  F  F4140  1  0.95334014  0.49901550  0.32861493  1.0
  F  F4141  1  0.95334014  0.57593857  0.32861493  1.0
  F  F4142  1  0.95334014  0.65286165  0.32861493  1.0
  F  F4143  1  0.95334014  0.72978473  0.32861493  1.0
  F  F4144  1  0.95334014  0.80670780  0.32861493  1.0
  F  F4145  1  0.95334014  0.88363088  0.32861493  1.0
  F  F4146  1  0.95334014  0.96055396  0.32861493  1.0
  F  F4147  1  0.07455226  0.06311806  0.39528160  1.0
  F  F4148  1  0.07455226  0.14004114  0.39528160  1.0
  F  F4149  1  0.07455226  0.21696421  0.39528160  1.0
  F  F4150  1  0.07455226  0.29388729  0.39528160  1.0
  F  F4151  1  0.07455226  0.37081037  0.39528160  1.0
  F  F4152  1  0.07455226  0.44773345  0.39528160  1.0
  F  F4153  1  0.07455226  0.52465652  0.39528160  1.0
  F  F4154  1  0.07455226  0.60157960  0.39528160  1.0
  F  F4155  1  0.07455226  0.67850268  0.39528160  1.0
  F  F4156  1  0.07455226  0.75542575  0.39528160  1.0
  F  F4157  1  0.07455226  0.83234883  0.39528160  1.0
  F  F4158  1  0.07455226  0.90927191  0.39528160  1.0
  F  F4159  1  0.07455226  0.98619498  0.39528160  1.0
  F  F4160  1  0.16546135  0.06311806  0.39528160  1.0
  F  F4161  1  0.16546135  0.14004114  0.39528160  1.0
  F  F4162  1  0.16546135  0.21696421  0.39528160  1.0
  F  F4163  1  0.16546135  0.29388729  0.39528160  1.0
  F  F4164  1  0.16546135  0.37081037  0.39528160  1.0
  F  F4165  1  0.16546135  0.44773345  0.39528160  1.0
  F  F4166  1  0.16546135  0.52465652  0.39528160  1.0
  F  F4167  1  0.16546135  0.60157960  0.39528160  1.0
  F  F4168  1  0.16546135  0.67850268  0.39528160  1.0
  F  F4169  1  0.16546135  0.75542575  0.39528160  1.0
  F  F4170  1  0.16546135  0.83234883  0.39528160  1.0
  F  F4171  1  0.16546135  0.90927191  0.39528160  1.0
  F  F4172  1  0.16546135  0.98619498  0.39528160  1.0
  F  F4173  1  0.25637044  0.06311806  0.39528160  1.0
  F  F4174  1  0.25637044  0.14004114  0.39528160  1.0
  F  F4175  1  0.25637044  0.21696421  0.39528160  1.0
  F  F4176  1  0.25637044  0.29388729  0.39528160  1.0
  F  F4177  1  0.25637044  0.37081037  0.39528160  1.0
  F  F4178  1  0.25637044  0.44773345  0.39528160  1.0
  F  F4179  1  0.25637044  0.52465652  0.39528160  1.0
  F  F4180  1  0.25637044  0.60157960  0.39528160  1.0
  F  F4181  1  0.25637044  0.67850268  0.39528160  1.0
  F  F4182  1  0.25637044  0.75542575  0.39528160  1.0
  F  F4183  1  0.25637044  0.83234883  0.39528160  1.0
  F  F4184  1  0.25637044  0.90927191  0.39528160  1.0
  F  F4185  1  0.25637044  0.98619498  0.39528160  1.0
  F  F4186  1  0.34727953  0.06311806  0.39528160  1.0
  F  F4187  1  0.34727953  0.14004114  0.39528160  1.0
  F  F4188  1  0.34727953  0.21696421  0.39528160  1.0
  F  F4189  1  0.34727953  0.29388729  0.39528160  1.0
  F  F4190  1  0.34727953  0.37081037  0.39528160  1.0
  F  F4191  1  0.34727953  0.44773345  0.39528160  1.0
  F  F4192  1  0.34727953  0.52465652  0.39528160  1.0
  F  F4193  1  0.34727953  0.60157960  0.39528160  1.0
  F  F4194  1  0.34727953  0.67850268  0.39528160  1.0
  F  F4195  1  0.34727953  0.75542575  0.39528160  1.0
  F  F4196  1  0.34727953  0.83234883  0.39528160  1.0
  F  F4197  1  0.34727953  0.90927191  0.39528160  1.0
  F  F4198  1  0.34727953  0.98619498  0.39528160  1.0
  F  F4199  1  0.43818863  0.06311806  0.39528160  1.0
  F  F4200  1  0.43818863  0.14004114  0.39528160  1.0
  F  F4201  1  0.43818863  0.21696421  0.39528160  1.0
  F  F4202  1  0.43818863  0.29388729  0.39528160  1.0
  F  F4203  1  0.43818863  0.37081037  0.39528160  1.0
  F  F4204  1  0.43818863  0.44773345  0.39528160  1.0
  F  F4205  1  0.43818863  0.52465652  0.39528160  1.0
  F  F4206  1  0.43818863  0.60157960  0.39528160  1.0
  F  F4207  1  0.43818863  0.67850268  0.39528160  1.0
  F  F4208  1  0.43818863  0.75542575  0.39528160  1.0
  F  F4209  1  0.43818863  0.83234883  0.39528160  1.0
  F  F4210  1  0.43818863  0.90927191  0.39528160  1.0
  F  F4211  1  0.43818863  0.98619498  0.39528160  1.0
  F  F4212  1  0.52909772  0.06311806  0.39528160  1.0
  F  F4213  1  0.52909772  0.14004114  0.39528160  1.0
  F  F4214  1  0.52909772  0.21696421  0.39528160  1.0
  F  F4215  1  0.52909772  0.29388729  0.39528160  1.0
  F  F4216  1  0.52909772  0.37081037  0.39528160  1.0
  F  F4217  1  0.52909772  0.44773345  0.39528160  1.0
  F  F4218  1  0.52909772  0.52465652  0.39528160  1.0
  F  F4219  1  0.52909772  0.60157960  0.39528160  1.0
  F  F4220  1  0.52909772  0.67850268  0.39528160  1.0
  F  F4221  1  0.52909772  0.75542575  0.39528160  1.0
  F  F4222  1  0.52909772  0.83234883  0.39528160  1.0
  F  F4223  1  0.52909772  0.90927191  0.39528160  1.0
  F  F4224  1  0.52909772  0.98619498  0.39528160  1.0
  F  F4225  1  0.62000681  0.06311806  0.39528160  1.0
  F  F4226  1  0.62000681  0.14004114  0.39528160  1.0
  F  F4227  1  0.62000681  0.21696421  0.39528160  1.0
  F  F4228  1  0.62000681  0.29388729  0.39528160  1.0
  F  F4229  1  0.62000681  0.37081037  0.39528160  1.0
  F  F4230  1  0.62000681  0.44773345  0.39528160  1.0
  F  F4231  1  0.62000681  0.52465652  0.39528160  1.0
  F  F4232  1  0.62000681  0.60157960  0.39528160  1.0
  F  F4233  1  0.62000681  0.67850268  0.39528160  1.0
  F  F4234  1  0.62000681  0.75542575  0.39528160  1.0
  F  F4235  1  0.62000681  0.83234883  0.39528160  1.0
  F  F4236  1  0.62000681  0.90927191  0.39528160  1.0
  F  F4237  1  0.62000681  0.98619498  0.39528160  1.0
  F  F4238  1  0.71091590  0.06311806  0.39528160  1.0
  F  F4239  1  0.71091590  0.14004114  0.39528160  1.0
  F  F4240  1  0.71091590  0.21696421  0.39528160  1.0
  F  F4241  1  0.71091590  0.29388729  0.39528160  1.0
  F  F4242  1  0.71091590  0.37081037  0.39528160  1.0
  F  F4243  1  0.71091590  0.44773345  0.39528160  1.0
  F  F4244  1  0.71091590  0.52465652  0.39528160  1.0
  F  F4245  1  0.71091590  0.60157960  0.39528160  1.0
  F  F4246  1  0.71091590  0.67850268  0.39528160  1.0
  F  F4247  1  0.71091590  0.75542575  0.39528160  1.0
  F  F4248  1  0.71091590  0.83234883  0.39528160  1.0
  F  F4249  1  0.71091590  0.90927191  0.39528160  1.0
  F  F4250  1  0.71091590  0.98619498  0.39528160  1.0
  F  F4251  1  0.80182499  0.06311806  0.39528160  1.0
  F  F4252  1  0.80182499  0.14004114  0.39528160  1.0
  F  F4253  1  0.80182499  0.21696421  0.39528160  1.0
  F  F4254  1  0.80182499  0.29388729  0.39528160  1.0
  F  F4255  1  0.80182499  0.37081037  0.39528160  1.0
  F  F4256  1  0.80182499  0.44773345  0.39528160  1.0
  F  F4257  1  0.80182499  0.52465652  0.39528160  1.0
  F  F4258  1  0.80182499  0.60157960  0.39528160  1.0
  F  F4259  1  0.80182499  0.67850268  0.39528160  1.0
  F  F4260  1  0.80182499  0.75542575  0.39528160  1.0
  F  F4261  1  0.80182499  0.83234883  0.39528160  1.0
  F  F4262  1  0.80182499  0.90927191  0.39528160  1.0
  F  F4263  1  0.80182499  0.98619498  0.39528160  1.0
  F  F4264  1  0.89273408  0.06311806  0.39528160  1.0
  F  F4265  1  0.89273408  0.14004114  0.39528160  1.0
  F  F4266  1  0.89273408  0.21696421  0.39528160  1.0
  F  F4267  1  0.89273408  0.29388729  0.39528160  1.0
  F  F4268  1  0.89273408  0.37081037  0.39528160  1.0
  F  F4269  1  0.89273408  0.44773345  0.39528160  1.0
  F  F4270  1  0.89273408  0.52465652  0.39528160  1.0
  F  F4271  1  0.89273408  0.60157960  0.39528160  1.0
  F  F4272  1  0.89273408  0.67850268  0.39528160  1.0
  F  F4273  1  0.89273408  0.75542575  0.39528160  1.0
  F  F4274  1  0.89273408  0.83234883  0.39528160  1.0
  F  F4275  1  0.89273408  0.90927191  0.39528160  1.0
  F  F4276  1  0.89273408  0.98619498  0.39528160  1.0
  F  F4277  1  0.98364317  0.06311806  0.39528160  1.0
  F  F4278  1  0.98364317  0.14004114  0.39528160  1.0
  F  F4279  1  0.98364317  0.21696421  0.39528160  1.0
  F  F4280  1  0.98364317  0.29388729  0.39528160  1.0
  F  F4281  1  0.98364317  0.37081037  0.39528160  1.0
  F  F4282  1  0.98364317  0.44773345  0.39528160  1.0
  F  F4283  1  0.98364317  0.52465652  0.39528160  1.0
  F  F4284  1  0.98364317  0.60157960  0.39528160  1.0
  F  F4285  1  0.98364317  0.67850268  0.39528160  1.0
  F  F4286  1  0.98364317  0.75542575  0.39528160  1.0
  F  F4287  1  0.98364317  0.83234883  0.39528160  1.0
  F  F4288  1  0.98364317  0.90927191  0.39528160  1.0
  F  F4289  1  0.98364317  0.98619498  0.39528160  1.0
  F  F4290  1  0.07843745  0.02589779  0.29731196  1.0
  F  F4291  1  0.07843745  0.10282087  0.29731196  1.0
  F  F4292  1  0.07843745  0.17974395  0.29731196  1.0
  F  F4293  1  0.07843745  0.25666703  0.29731196  1.0
  F  F4294  1  0.07843745  0.33359010  0.29731196  1.0
  F  F4295  1  0.07843745  0.41051318  0.29731196  1.0
  F  F4296  1  0.07843745  0.48743626  0.29731196  1.0
  F  F4297  1  0.07843745  0.56435933  0.29731196  1.0
  F  F4298  1  0.07843745  0.64128241  0.29731196  1.0
  F  F4299  1  0.07843745  0.71820549  0.29731196  1.0
  F  F4300  1  0.07843745  0.79512856  0.29731196  1.0
  F  F4301  1  0.07843745  0.87205164  0.29731196  1.0
  F  F4302  1  0.07843745  0.94897472  0.29731196  1.0
  F  F4303  1  0.16934654  0.02589779  0.29731196  1.0
  F  F4304  1  0.16934654  0.10282087  0.29731196  1.0
  F  F4305  1  0.16934654  0.17974395  0.29731196  1.0
  F  F4306  1  0.16934654  0.25666703  0.29731196  1.0
  F  F4307  1  0.16934654  0.33359010  0.29731196  1.0
  F  F4308  1  0.16934654  0.41051318  0.29731196  1.0
  F  F4309  1  0.16934654  0.48743626  0.29731196  1.0
  F  F4310  1  0.16934654  0.56435933  0.29731196  1.0
  F  F4311  1  0.16934654  0.64128241  0.29731196  1.0
  F  F4312  1  0.16934654  0.71820549  0.29731196  1.0
  F  F4313  1  0.16934654  0.79512856  0.29731196  1.0
  F  F4314  1  0.16934654  0.87205164  0.29731196  1.0
  F  F4315  1  0.16934654  0.94897472  0.29731196  1.0
  F  F4316  1  0.26025564  0.02589779  0.29731196  1.0
  F  F4317  1  0.26025564  0.10282087  0.29731196  1.0
  F  F4318  1  0.26025564  0.17974395  0.29731196  1.0
  F  F4319  1  0.26025564  0.25666703  0.29731196  1.0
  F  F4320  1  0.26025564  0.33359010  0.29731196  1.0
  F  F4321  1  0.26025564  0.41051318  0.29731196  1.0
  F  F4322  1  0.26025564  0.48743626  0.29731196  1.0
  F  F4323  1  0.26025564  0.56435933  0.29731196  1.0
  F  F4324  1  0.26025564  0.64128241  0.29731196  1.0
  F  F4325  1  0.26025564  0.71820549  0.29731196  1.0
  F  F4326  1  0.26025564  0.79512856  0.29731196  1.0
  F  F4327  1  0.26025564  0.87205164  0.29731196  1.0
  F  F4328  1  0.26025564  0.94897472  0.29731196  1.0
  F  F4329  1  0.35116473  0.02589779  0.29731196  1.0
  F  F4330  1  0.35116473  0.10282087  0.29731196  1.0
  F  F4331  1  0.35116473  0.17974395  0.29731196  1.0
  F  F4332  1  0.35116473  0.25666703  0.29731196  1.0
  F  F4333  1  0.35116473  0.33359010  0.29731196  1.0
  F  F4334  1  0.35116473  0.41051318  0.29731196  1.0
  F  F4335  1  0.35116473  0.48743626  0.29731196  1.0
  F  F4336  1  0.35116473  0.56435933  0.29731196  1.0
  F  F4337  1  0.35116473  0.64128241  0.29731196  1.0
  F  F4338  1  0.35116473  0.71820549  0.29731196  1.0
  F  F4339  1  0.35116473  0.79512856  0.29731196  1.0
  F  F4340  1  0.35116473  0.87205164  0.29731196  1.0
  F  F4341  1  0.35116473  0.94897472  0.29731196  1.0
  F  F4342  1  0.44207382  0.02589779  0.29731196  1.0
  F  F4343  1  0.44207382  0.10282087  0.29731196  1.0
  F  F4344  1  0.44207382  0.17974395  0.29731196  1.0
  F  F4345  1  0.44207382  0.25666703  0.29731196  1.0
  F  F4346  1  0.44207382  0.33359010  0.29731196  1.0
  F  F4347  1  0.44207382  0.41051318  0.29731196  1.0
  F  F4348  1  0.44207382  0.48743626  0.29731196  1.0
  F  F4349  1  0.44207382  0.56435933  0.29731196  1.0
  F  F4350  1  0.44207382  0.64128241  0.29731196  1.0
  F  F4351  1  0.44207382  0.71820549  0.29731196  1.0
  F  F4352  1  0.44207382  0.79512856  0.29731196  1.0
  F  F4353  1  0.44207382  0.87205164  0.29731196  1.0
  F  F4354  1  0.44207382  0.94897472  0.29731196  1.0
  F  F4355  1  0.53298291  0.02589779  0.29731196  1.0
  F  F4356  1  0.53298291  0.10282087  0.29731196  1.0
  F  F4357  1  0.53298291  0.17974395  0.29731196  1.0
  F  F4358  1  0.53298291  0.25666703  0.29731196  1.0
  F  F4359  1  0.53298291  0.33359010  0.29731196  1.0
  F  F4360  1  0.53298291  0.41051318  0.29731196  1.0
  F  F4361  1  0.53298291  0.48743626  0.29731196  1.0
  F  F4362  1  0.53298291  0.56435933  0.29731196  1.0
  F  F4363  1  0.53298291  0.64128241  0.29731196  1.0
  F  F4364  1  0.53298291  0.71820549  0.29731196  1.0
  F  F4365  1  0.53298291  0.79512856  0.29731196  1.0
  F  F4366  1  0.53298291  0.87205164  0.29731196  1.0
  F  F4367  1  0.53298291  0.94897472  0.29731196  1.0
  F  F4368  1  0.62389200  0.02589779  0.29731196  1.0
  F  F4369  1  0.62389200  0.10282087  0.29731196  1.0
  F  F4370  1  0.62389200  0.17974395  0.29731196  1.0
  F  F4371  1  0.62389200  0.25666703  0.29731196  1.0
  F  F4372  1  0.62389200  0.33359010  0.29731196  1.0
  F  F4373  1  0.62389200  0.41051318  0.29731196  1.0
  F  F4374  1  0.62389200  0.48743626  0.29731196  1.0
  F  F4375  1  0.62389200  0.56435933  0.29731196  1.0
  F  F4376  1  0.62389200  0.64128241  0.29731196  1.0
  F  F4377  1  0.62389200  0.71820549  0.29731196  1.0
  F  F4378  1  0.62389200  0.79512856  0.29731196  1.0
  F  F4379  1  0.62389200  0.87205164  0.29731196  1.0
  F  F4380  1  0.62389200  0.94897472  0.29731196  1.0
  F  F4381  1  0.71480109  0.02589779  0.29731196  1.0
  F  F4382  1  0.71480109  0.10282087  0.29731196  1.0
  F  F4383  1  0.71480109  0.17974395  0.29731196  1.0
  F  F4384  1  0.71480109  0.25666703  0.29731196  1.0
  F  F4385  1  0.71480109  0.33359010  0.29731196  1.0
  F  F4386  1  0.71480109  0.41051318  0.29731196  1.0
  F  F4387  1  0.71480109  0.48743626  0.29731196  1.0
  F  F4388  1  0.71480109  0.56435933  0.29731196  1.0
  F  F4389  1  0.71480109  0.64128241  0.29731196  1.0
  F  F4390  1  0.71480109  0.71820549  0.29731196  1.0
  F  F4391  1  0.71480109  0.79512856  0.29731196  1.0
  F  F4392  1  0.71480109  0.87205164  0.29731196  1.0
  F  F4393  1  0.71480109  0.94897472  0.29731196  1.0
  F  F4394  1  0.80571018  0.02589779  0.29731196  1.0
  F  F4395  1  0.80571018  0.10282087  0.29731196  1.0
  F  F4396  1  0.80571018  0.17974395  0.29731196  1.0
  F  F4397  1  0.80571018  0.25666703  0.29731196  1.0
  F  F4398  1  0.80571018  0.33359010  0.29731196  1.0
  F  F4399  1  0.80571018  0.41051318  0.29731196  1.0
  F  F4400  1  0.80571018  0.48743626  0.29731196  1.0
  F  F4401  1  0.80571018  0.56435933  0.29731196  1.0
  F  F4402  1  0.80571018  0.64128241  0.29731196  1.0
  F  F4403  1  0.80571018  0.71820549  0.29731196  1.0
  F  F4404  1  0.80571018  0.79512856  0.29731196  1.0
  F  F4405  1  0.80571018  0.87205164  0.29731196  1.0
  F  F4406  1  0.80571018  0.94897472  0.29731196  1.0
  F  F4407  1  0.89661927  0.02589779  0.29731196  1.0
  F  F4408  1  0.89661927  0.10282087  0.29731196  1.0
  F  F4409  1  0.89661927  0.17974395  0.29731196  1.0
  F  F4410  1  0.89661927  0.25666703  0.29731196  1.0
  F  F4411  1  0.89661927  0.33359010  0.29731196  1.0
  F  F4412  1  0.89661927  0.41051318  0.29731196  1.0
  F  F4413  1  0.89661927  0.48743626  0.29731196  1.0
  F  F4414  1  0.89661927  0.56435933  0.29731196  1.0
  F  F4415  1  0.89661927  0.64128241  0.29731196  1.0
  F  F4416  1  0.89661927  0.71820549  0.29731196  1.0
  F  F4417  1  0.89661927  0.79512856  0.29731196  1.0
  F  F4418  1  0.89661927  0.87205164  0.29731196  1.0
  F  F4419  1  0.89661927  0.94897472  0.29731196  1.0
  F  F4420  1  0.98752836  0.02589779  0.29731196  1.0
  F  F4421  1  0.98752836  0.10282087  0.29731196  1.0
  F  F4422  1  0.98752836  0.17974395  0.29731196  1.0
  F  F4423  1  0.98752836  0.25666703  0.29731196  1.0
  F  F4424  1  0.98752836  0.33359010  0.29731196  1.0
  F  F4425  1  0.98752836  0.41051318  0.29731196  1.0
  F  F4426  1  0.98752836  0.48743626  0.29731196  1.0
  F  F4427  1  0.98752836  0.56435933  0.29731196  1.0
  F  F4428  1  0.98752836  0.64128241  0.29731196  1.0
  F  F4429  1  0.98752836  0.71820549  0.29731196  1.0
  F  F4430  1  0.98752836  0.79512856  0.29731196  1.0
  F  F4431  1  0.98752836  0.87205164  0.29731196  1.0
  F  F4432  1  0.98752836  0.94897472  0.29731196  1.0
  F  F4433  1  0.01783139  0.05153882  0.36397863  1.0
  F  F4434  1  0.01783139  0.12846190  0.36397863  1.0
  F  F4435  1  0.01783139  0.20538497  0.36397863  1.0
  F  F4436  1  0.01783139  0.28230805  0.36397863  1.0
  F  F4437  1  0.01783139  0.35923113  0.36397863  1.0
  F  F4438  1  0.01783139  0.43615420  0.36397863  1.0
  F  F4439  1  0.01783139  0.51307728  0.36397863  1.0
  F  F4440  1  0.01783139  0.59000036  0.36397863  1.0
  F  F4441  1  0.01783139  0.66692344  0.36397863  1.0
  F  F4442  1  0.01783139  0.74384651  0.36397863  1.0
  F  F4443  1  0.01783139  0.82076959  0.36397863  1.0
  F  F4444  1  0.01783139  0.89769267  0.36397863  1.0
  F  F4445  1  0.01783139  0.97461574  0.36397863  1.0
  F  F4446  1  0.10874048  0.05153882  0.36397863  1.0
  F  F4447  1  0.10874048  0.12846190  0.36397863  1.0
  F  F4448  1  0.10874048  0.20538497  0.36397863  1.0
  F  F4449  1  0.10874048  0.28230805  0.36397863  1.0
  F  F4450  1  0.10874048  0.35923113  0.36397863  1.0
  F  F4451  1  0.10874048  0.43615420  0.36397863  1.0
  F  F4452  1  0.10874048  0.51307728  0.36397863  1.0
  F  F4453  1  0.10874048  0.59000036  0.36397863  1.0
  F  F4454  1  0.10874048  0.66692344  0.36397863  1.0
  F  F4455  1  0.10874048  0.74384651  0.36397863  1.0
  F  F4456  1  0.10874048  0.82076959  0.36397863  1.0
  F  F4457  1  0.10874048  0.89769267  0.36397863  1.0
  F  F4458  1  0.10874048  0.97461574  0.36397863  1.0
  F  F4459  1  0.19964957  0.05153882  0.36397863  1.0
  F  F4460  1  0.19964957  0.12846190  0.36397863  1.0
  F  F4461  1  0.19964957  0.20538497  0.36397863  1.0
  F  F4462  1  0.19964957  0.28230805  0.36397863  1.0
  F  F4463  1  0.19964957  0.35923113  0.36397863  1.0
  F  F4464  1  0.19964957  0.43615420  0.36397863  1.0
  F  F4465  1  0.19964957  0.51307728  0.36397863  1.0
  F  F4466  1  0.19964957  0.59000036  0.36397863  1.0
  F  F4467  1  0.19964957  0.66692344  0.36397863  1.0
  F  F4468  1  0.19964957  0.74384651  0.36397863  1.0
  F  F4469  1  0.19964957  0.82076959  0.36397863  1.0
  F  F4470  1  0.19964957  0.89769267  0.36397863  1.0
  F  F4471  1  0.19964957  0.97461574  0.36397863  1.0
  F  F4472  1  0.29055867  0.05153882  0.36397863  1.0
  F  F4473  1  0.29055867  0.12846190  0.36397863  1.0
  F  F4474  1  0.29055867  0.20538497  0.36397863  1.0
  F  F4475  1  0.29055867  0.28230805  0.36397863  1.0
  F  F4476  1  0.29055867  0.35923113  0.36397863  1.0
  F  F4477  1  0.29055867  0.43615420  0.36397863  1.0
  F  F4478  1  0.29055867  0.51307728  0.36397863  1.0
  F  F4479  1  0.29055867  0.59000036  0.36397863  1.0
  F  F4480  1  0.29055867  0.66692344  0.36397863  1.0
  F  F4481  1  0.29055867  0.74384651  0.36397863  1.0
  F  F4482  1  0.29055867  0.82076959  0.36397863  1.0
  F  F4483  1  0.29055867  0.89769267  0.36397863  1.0
  F  F4484  1  0.29055867  0.97461574  0.36397863  1.0
  F  F4485  1  0.38146776  0.05153882  0.36397863  1.0
  F  F4486  1  0.38146776  0.12846190  0.36397863  1.0
  F  F4487  1  0.38146776  0.20538497  0.36397863  1.0
  F  F4488  1  0.38146776  0.28230805  0.36397863  1.0
  F  F4489  1  0.38146776  0.35923113  0.36397863  1.0
  F  F4490  1  0.38146776  0.43615420  0.36397863  1.0
  F  F4491  1  0.38146776  0.51307728  0.36397863  1.0
  F  F4492  1  0.38146776  0.59000036  0.36397863  1.0
  F  F4493  1  0.38146776  0.66692344  0.36397863  1.0
  F  F4494  1  0.38146776  0.74384651  0.36397863  1.0
  F  F4495  1  0.38146776  0.82076959  0.36397863  1.0
  F  F4496  1  0.38146776  0.89769267  0.36397863  1.0
  F  F4497  1  0.38146776  0.97461574  0.36397863  1.0
  F  F4498  1  0.47237685  0.05153882  0.36397863  1.0
  F  F4499  1  0.47237685  0.12846190  0.36397863  1.0
  F  F4500  1  0.47237685  0.20538497  0.36397863  1.0
  F  F4501  1  0.47237685  0.28230805  0.36397863  1.0
  F  F4502  1  0.47237685  0.35923113  0.36397863  1.0
  F  F4503  1  0.47237685  0.43615420  0.36397863  1.0
  F  F4504  1  0.47237685  0.51307728  0.36397863  1.0
  F  F4505  1  0.47237685  0.59000036  0.36397863  1.0
  F  F4506  1  0.47237685  0.66692344  0.36397863  1.0
  F  F4507  1  0.47237685  0.74384651  0.36397863  1.0
  F  F4508  1  0.47237685  0.82076959  0.36397863  1.0
  F  F4509  1  0.47237685  0.89769267  0.36397863  1.0
  F  F4510  1  0.47237685  0.97461574  0.36397863  1.0
  F  F4511  1  0.56328594  0.05153882  0.36397863  1.0
  F  F4512  1  0.56328594  0.12846190  0.36397863  1.0
  F  F4513  1  0.56328594  0.20538497  0.36397863  1.0
  F  F4514  1  0.56328594  0.28230805  0.36397863  1.0
  F  F4515  1  0.56328594  0.35923113  0.36397863  1.0
  F  F4516  1  0.56328594  0.43615420  0.36397863  1.0
  F  F4517  1  0.56328594  0.51307728  0.36397863  1.0
  F  F4518  1  0.56328594  0.59000036  0.36397863  1.0
  F  F4519  1  0.56328594  0.66692344  0.36397863  1.0
  F  F4520  1  0.56328594  0.74384651  0.36397863  1.0
  F  F4521  1  0.56328594  0.82076959  0.36397863  1.0
  F  F4522  1  0.56328594  0.89769267  0.36397863  1.0
  F  F4523  1  0.56328594  0.97461574  0.36397863  1.0
  F  F4524  1  0.65419503  0.05153882  0.36397863  1.0
  F  F4525  1  0.65419503  0.12846190  0.36397863  1.0
  F  F4526  1  0.65419503  0.20538497  0.36397863  1.0
  F  F4527  1  0.65419503  0.28230805  0.36397863  1.0
  F  F4528  1  0.65419503  0.35923113  0.36397863  1.0
  F  F4529  1  0.65419503  0.43615420  0.36397863  1.0
  F  F4530  1  0.65419503  0.51307728  0.36397863  1.0
  F  F4531  1  0.65419503  0.59000036  0.36397863  1.0
  F  F4532  1  0.65419503  0.66692344  0.36397863  1.0
  F  F4533  1  0.65419503  0.74384651  0.36397863  1.0
  F  F4534  1  0.65419503  0.82076959  0.36397863  1.0
  F  F4535  1  0.65419503  0.89769267  0.36397863  1.0
  F  F4536  1  0.65419503  0.97461574  0.36397863  1.0
  F  F4537  1  0.74510412  0.05153882  0.36397863  1.0
  F  F4538  1  0.74510412  0.12846190  0.36397863  1.0
  F  F4539  1  0.74510412  0.20538497  0.36397863  1.0
  F  F4540  1  0.74510412  0.28230805  0.36397863  1.0
  F  F4541  1  0.74510412  0.35923113  0.36397863  1.0
  F  F4542  1  0.74510412  0.43615420  0.36397863  1.0
  F  F4543  1  0.74510412  0.51307728  0.36397863  1.0
  F  F4544  1  0.74510412  0.59000036  0.36397863  1.0
  F  F4545  1  0.74510412  0.66692344  0.36397863  1.0
  F  F4546  1  0.74510412  0.74384651  0.36397863  1.0
  F  F4547  1  0.74510412  0.82076959  0.36397863  1.0
  F  F4548  1  0.74510412  0.89769267  0.36397863  1.0
  F  F4549  1  0.74510412  0.97461574  0.36397863  1.0
  F  F4550  1  0.83601321  0.05153882  0.36397863  1.0
  F  F4551  1  0.83601321  0.12846190  0.36397863  1.0
  F  F4552  1  0.83601321  0.20538497  0.36397863  1.0
  F  F4553  1  0.83601321  0.28230805  0.36397863  1.0
  F  F4554  1  0.83601321  0.35923113  0.36397863  1.0
  F  F4555  1  0.83601321  0.43615420  0.36397863  1.0
  F  F4556  1  0.83601321  0.51307728  0.36397863  1.0
  F  F4557  1  0.83601321  0.59000036  0.36397863  1.0
  F  F4558  1  0.83601321  0.66692344  0.36397863  1.0
  F  F4559  1  0.83601321  0.74384651  0.36397863  1.0
  F  F4560  1  0.83601321  0.82076959  0.36397863  1.0
  F  F4561  1  0.83601321  0.89769267  0.36397863  1.0
  F  F4562  1  0.83601321  0.97461574  0.36397863  1.0
  F  F4563  1  0.92692230  0.05153882  0.36397863  1.0
  F  F4564  1  0.92692230  0.12846190  0.36397863  1.0
  F  F4565  1  0.92692230  0.20538497  0.36397863  1.0
  F  F4566  1  0.92692230  0.28230805  0.36397863  1.0
  F  F4567  1  0.92692230  0.35923113  0.36397863  1.0
  F  F4568  1  0.92692230  0.43615420  0.36397863  1.0
  F  F4569  1  0.92692230  0.51307728  0.36397863  1.0
  F  F4570  1  0.92692230  0.59000036  0.36397863  1.0
  F  F4571  1  0.92692230  0.66692344  0.36397863  1.0
  F  F4572  1  0.92692230  0.74384651  0.36397863  1.0
  F  F4573  1  0.92692230  0.82076959  0.36397863  1.0
  F  F4574  1  0.92692230  0.89769267  0.36397863  1.0
  F  F4575  1  0.92692230  0.97461574  0.36397863  1.0
  F  F4576  1  0.04813442  0.00025677  0.23064530  1.0
  F  F4577  1  0.04813442  0.07717985  0.23064530  1.0
  F  F4578  1  0.04813442  0.15410292  0.23064530  1.0
  F  F4579  1  0.04813442  0.23102600  0.23064530  1.0
  F  F4580  1  0.04813442  0.30794908  0.23064530  1.0
  F  F4581  1  0.04813442  0.38487215  0.23064530  1.0
  F  F4582  1  0.04813442  0.46179523  0.23064530  1.0
  F  F4583  1  0.04813442  0.53871831  0.23064530  1.0
  F  F4584  1  0.04813442  0.61564138  0.23064530  1.0
  F  F4585  1  0.04813442  0.69256446  0.23064530  1.0
  F  F4586  1  0.04813442  0.76948754  0.23064530  1.0
  F  F4587  1  0.04813442  0.84641061  0.23064530  1.0
  F  F4588  1  0.04813442  0.92333369  0.23064530  1.0
  F  F4589  1  0.13904351  0.00025677  0.23064530  1.0
  F  F4590  1  0.13904351  0.07717985  0.23064530  1.0
  F  F4591  1  0.13904351  0.15410292  0.23064530  1.0
  F  F4592  1  0.13904351  0.23102600  0.23064530  1.0
  F  F4593  1  0.13904351  0.30794908  0.23064530  1.0
  F  F4594  1  0.13904351  0.38487215  0.23064530  1.0
  F  F4595  1  0.13904351  0.46179523  0.23064530  1.0
  F  F4596  1  0.13904351  0.53871831  0.23064530  1.0
  F  F4597  1  0.13904351  0.61564138  0.23064530  1.0
  F  F4598  1  0.13904351  0.69256446  0.23064530  1.0
  F  F4599  1  0.13904351  0.76948754  0.23064530  1.0
  F  F4600  1  0.13904351  0.84641061  0.23064530  1.0
  F  F4601  1  0.13904351  0.92333369  0.23064530  1.0
  F  F4602  1  0.22995260  0.00025677  0.23064530  1.0
  F  F4603  1  0.22995260  0.07717985  0.23064530  1.0
  F  F4604  1  0.22995260  0.15410292  0.23064530  1.0
  F  F4605  1  0.22995260  0.23102600  0.23064530  1.0
  F  F4606  1  0.22995260  0.30794908  0.23064530  1.0
  F  F4607  1  0.22995260  0.38487215  0.23064530  1.0
  F  F4608  1  0.22995260  0.46179523  0.23064530  1.0
  F  F4609  1  0.22995260  0.53871831  0.23064530  1.0
  F  F4610  1  0.22995260  0.61564138  0.23064530  1.0
  F  F4611  1  0.22995260  0.69256446  0.23064530  1.0
  F  F4612  1  0.22995260  0.76948754  0.23064530  1.0
  F  F4613  1  0.22995260  0.84641061  0.23064530  1.0
  F  F4614  1  0.22995260  0.92333369  0.23064530  1.0
  F  F4615  1  0.32086170  0.00025677  0.23064530  1.0
  F  F4616  1  0.32086170  0.07717985  0.23064530  1.0
  F  F4617  1  0.32086170  0.15410292  0.23064530  1.0
  F  F4618  1  0.32086170  0.23102600  0.23064530  1.0
  F  F4619  1  0.32086170  0.30794908  0.23064530  1.0
  F  F4620  1  0.32086170  0.38487215  0.23064530  1.0
  F  F4621  1  0.32086170  0.46179523  0.23064530  1.0
  F  F4622  1  0.32086170  0.53871831  0.23064530  1.0
  F  F4623  1  0.32086170  0.61564138  0.23064530  1.0
  F  F4624  1  0.32086170  0.69256446  0.23064530  1.0
  F  F4625  1  0.32086170  0.76948754  0.23064530  1.0
  F  F4626  1  0.32086170  0.84641061  0.23064530  1.0
  F  F4627  1  0.32086170  0.92333369  0.23064530  1.0
  F  F4628  1  0.41177079  0.00025677  0.23064530  1.0
  F  F4629  1  0.41177079  0.07717985  0.23064530  1.0
  F  F4630  1  0.41177079  0.15410292  0.23064530  1.0
  F  F4631  1  0.41177079  0.23102600  0.23064530  1.0
  F  F4632  1  0.41177079  0.30794908  0.23064530  1.0
  F  F4633  1  0.41177079  0.38487215  0.23064530  1.0
  F  F4634  1  0.41177079  0.46179523  0.23064530  1.0
  F  F4635  1  0.41177079  0.53871831  0.23064530  1.0
  F  F4636  1  0.41177079  0.61564138  0.23064530  1.0
  F  F4637  1  0.41177079  0.69256446  0.23064530  1.0
  F  F4638  1  0.41177079  0.76948754  0.23064530  1.0
  F  F4639  1  0.41177079  0.84641061  0.23064530  1.0
  F  F4640  1  0.41177079  0.92333369  0.23064530  1.0
  F  F4641  1  0.50267988  0.00025677  0.23064530  1.0
  F  F4642  1  0.50267988  0.07717985  0.23064530  1.0
  F  F4643  1  0.50267988  0.15410292  0.23064530  1.0
  F  F4644  1  0.50267988  0.23102600  0.23064530  1.0
  F  F4645  1  0.50267988  0.30794908  0.23064530  1.0
  F  F4646  1  0.50267988  0.38487215  0.23064530  1.0
  F  F4647  1  0.50267988  0.46179523  0.23064530  1.0
  F  F4648  1  0.50267988  0.53871831  0.23064530  1.0
  F  F4649  1  0.50267988  0.61564138  0.23064530  1.0
  F  F4650  1  0.50267988  0.69256446  0.23064530  1.0
  F  F4651  1  0.50267988  0.76948754  0.23064530  1.0
  F  F4652  1  0.50267988  0.84641061  0.23064530  1.0
  F  F4653  1  0.50267988  0.92333369  0.23064530  1.0
  F  F4654  1  0.59358897  0.00025677  0.23064530  1.0
  F  F4655  1  0.59358897  0.07717985  0.23064530  1.0
  F  F4656  1  0.59358897  0.15410292  0.23064530  1.0
  F  F4657  1  0.59358897  0.23102600  0.23064530  1.0
  F  F4658  1  0.59358897  0.30794908  0.23064530  1.0
  F  F4659  1  0.59358897  0.38487215  0.23064530  1.0
  F  F4660  1  0.59358897  0.46179523  0.23064530  1.0
  F  F4661  1  0.59358897  0.53871831  0.23064530  1.0
  F  F4662  1  0.59358897  0.61564138  0.23064530  1.0
  F  F4663  1  0.59358897  0.69256446  0.23064530  1.0
  F  F4664  1  0.59358897  0.76948754  0.23064530  1.0
  F  F4665  1  0.59358897  0.84641061  0.23064530  1.0
  F  F4666  1  0.59358897  0.92333369  0.23064530  1.0
  F  F4667  1  0.68449806  0.00025677  0.23064530  1.0
  F  F4668  1  0.68449806  0.07717985  0.23064530  1.0
  F  F4669  1  0.68449806  0.15410292  0.23064530  1.0
  F  F4670  1  0.68449806  0.23102600  0.23064530  1.0
  F  F4671  1  0.68449806  0.30794908  0.23064530  1.0
  F  F4672  1  0.68449806  0.38487215  0.23064530  1.0
  F  F4673  1  0.68449806  0.46179523  0.23064530  1.0
  F  F4674  1  0.68449806  0.53871831  0.23064530  1.0
  F  F4675  1  0.68449806  0.61564138  0.23064530  1.0
  F  F4676  1  0.68449806  0.69256446  0.23064530  1.0
  F  F4677  1  0.68449806  0.76948754  0.23064530  1.0
  F  F4678  1  0.68449806  0.84641061  0.23064530  1.0
  F  F4679  1  0.68449806  0.92333369  0.23064530  1.0
  F  F4680  1  0.77540715  0.00025677  0.23064530  1.0
  F  F4681  1  0.77540715  0.07717985  0.23064530  1.0
  F  F4682  1  0.77540715  0.15410292  0.23064530  1.0
  F  F4683  1  0.77540715  0.23102600  0.23064530  1.0
  F  F4684  1  0.77540715  0.30794908  0.23064530  1.0
  F  F4685  1  0.77540715  0.38487215  0.23064530  1.0
  F  F4686  1  0.77540715  0.46179523  0.23064530  1.0
  F  F4687  1  0.77540715  0.53871831  0.23064530  1.0
  F  F4688  1  0.77540715  0.61564138  0.23064530  1.0
  F  F4689  1  0.77540715  0.69256446  0.23064530  1.0
  F  F4690  1  0.77540715  0.76948754  0.23064530  1.0
  F  F4691  1  0.77540715  0.84641061  0.23064530  1.0
  F  F4692  1  0.77540715  0.92333369  0.23064530  1.0
  F  F4693  1  0.86631624  0.00025677  0.23064530  1.0
  F  F4694  1  0.86631624  0.07717985  0.23064530  1.0
  F  F4695  1  0.86631624  0.15410292  0.23064530  1.0
  F  F4696  1  0.86631624  0.23102600  0.23064530  1.0
  F  F4697  1  0.86631624  0.30794908  0.23064530  1.0
  F  F4698  1  0.86631624  0.38487215  0.23064530  1.0
  F  F4699  1  0.86631624  0.46179523  0.23064530  1.0
  F  F4700  1  0.86631624  0.53871831  0.23064530  1.0
  F  F4701  1  0.86631624  0.61564138  0.23064530  1.0
  F  F4702  1  0.86631624  0.69256446  0.23064530  1.0
  F  F4703  1  0.86631624  0.76948754  0.23064530  1.0
  F  F4704  1  0.86631624  0.84641061  0.23064530  1.0
  F  F4705  1  0.86631624  0.92333369  0.23064530  1.0
  F  F4706  1  0.95722533  0.00025677  0.23064530  1.0
  F  F4707  1  0.95722533  0.07717985  0.23064530  1.0
  F  F4708  1  0.95722533  0.15410292  0.23064530  1.0
  F  F4709  1  0.95722533  0.23102600  0.23064530  1.0
  F  F4710  1  0.95722533  0.30794908  0.23064530  1.0
  F  F4711  1  0.95722533  0.38487215  0.23064530  1.0
  F  F4712  1  0.95722533  0.46179523  0.23064530  1.0
  F  F4713  1  0.95722533  0.53871831  0.23064530  1.0
  F  F4714  1  0.95722533  0.61564138  0.23064530  1.0
  F  F4715  1  0.95722533  0.69256446  0.23064530  1.0
  F  F4716  1  0.95722533  0.76948754  0.23064530  1.0
  F  F4717  1  0.95722533  0.84641061  0.23064530  1.0
  F  F4718  1  0.95722533  0.92333369  0.23064530  1.0
  F  F4719  1  0.05866895  0.01358193  0.46541863  1.0
  F  F4720  1  0.05866895  0.09050500  0.46541863  1.0
  F  F4721  1  0.05866895  0.16742808  0.46541863  1.0
  F  F4722  1  0.05866895  0.24435116  0.46541863  1.0
  F  F4723  1  0.05866895  0.32127423  0.46541863  1.0
  F  F4724  1  0.05866895  0.39819731  0.46541863  1.0
  F  F4725  1  0.05866895  0.47512039  0.46541863  1.0
  F  F4726  1  0.05866895  0.55204346  0.46541863  1.0
  F  F4727  1  0.05866895  0.62896654  0.46541863  1.0
  F  F4728  1  0.05866895  0.70588962  0.46541863  1.0
  F  F4729  1  0.05866895  0.78281270  0.46541863  1.0
  F  F4730  1  0.05866895  0.85973577  0.46541863  1.0
  F  F4731  1  0.05866895  0.93665885  0.46541863  1.0
  F  F4732  1  0.14957804  0.01358193  0.46541863  1.0
  F  F4733  1  0.14957804  0.09050500  0.46541863  1.0
  F  F4734  1  0.14957804  0.16742808  0.46541863  1.0
  F  F4735  1  0.14957804  0.24435116  0.46541863  1.0
  F  F4736  1  0.14957804  0.32127423  0.46541863  1.0
  F  F4737  1  0.14957804  0.39819731  0.46541863  1.0
  F  F4738  1  0.14957804  0.47512039  0.46541863  1.0
  F  F4739  1  0.14957804  0.55204346  0.46541863  1.0
  F  F4740  1  0.14957804  0.62896654  0.46541863  1.0
  F  F4741  1  0.14957804  0.70588962  0.46541863  1.0
  F  F4742  1  0.14957804  0.78281270  0.46541863  1.0
  F  F4743  1  0.14957804  0.85973577  0.46541863  1.0
  F  F4744  1  0.14957804  0.93665885  0.46541863  1.0
  F  F4745  1  0.24048713  0.01358193  0.46541863  1.0
  F  F4746  1  0.24048713  0.09050500  0.46541863  1.0
  F  F4747  1  0.24048713  0.16742808  0.46541863  1.0
  F  F4748  1  0.24048713  0.24435116  0.46541863  1.0
  F  F4749  1  0.24048713  0.32127423  0.46541863  1.0
  F  F4750  1  0.24048713  0.39819731  0.46541863  1.0
  F  F4751  1  0.24048713  0.47512039  0.46541863  1.0
  F  F4752  1  0.24048713  0.55204346  0.46541863  1.0
  F  F4753  1  0.24048713  0.62896654  0.46541863  1.0
  F  F4754  1  0.24048713  0.70588962  0.46541863  1.0
  F  F4755  1  0.24048713  0.78281270  0.46541863  1.0
  F  F4756  1  0.24048713  0.85973577  0.46541863  1.0
  F  F4757  1  0.24048713  0.93665885  0.46541863  1.0
  F  F4758  1  0.33139622  0.01358193  0.46541863  1.0
  F  F4759  1  0.33139622  0.09050500  0.46541863  1.0
  F  F4760  1  0.33139622  0.16742808  0.46541863  1.0
  F  F4761  1  0.33139622  0.24435116  0.46541863  1.0
  F  F4762  1  0.33139622  0.32127423  0.46541863  1.0
  F  F4763  1  0.33139622  0.39819731  0.46541863  1.0
  F  F4764  1  0.33139622  0.47512039  0.46541863  1.0
  F  F4765  1  0.33139622  0.55204346  0.46541863  1.0
  F  F4766  1  0.33139622  0.62896654  0.46541863  1.0
  F  F4767  1  0.33139622  0.70588962  0.46541863  1.0
  F  F4768  1  0.33139622  0.78281270  0.46541863  1.0
  F  F4769  1  0.33139622  0.85973577  0.46541863  1.0
  F  F4770  1  0.33139622  0.93665885  0.46541863  1.0
  F  F4771  1  0.42230531  0.01358193  0.46541863  1.0
  F  F4772  1  0.42230531  0.09050500  0.46541863  1.0
  F  F4773  1  0.42230531  0.16742808  0.46541863  1.0
  F  F4774  1  0.42230531  0.24435116  0.46541863  1.0
  F  F4775  1  0.42230531  0.32127423  0.46541863  1.0
  F  F4776  1  0.42230531  0.39819731  0.46541863  1.0
  F  F4777  1  0.42230531  0.47512039  0.46541863  1.0
  F  F4778  1  0.42230531  0.55204346  0.46541863  1.0
  F  F4779  1  0.42230531  0.62896654  0.46541863  1.0
  F  F4780  1  0.42230531  0.70588962  0.46541863  1.0
  F  F4781  1  0.42230531  0.78281270  0.46541863  1.0
  F  F4782  1  0.42230531  0.85973577  0.46541863  1.0
  F  F4783  1  0.42230531  0.93665885  0.46541863  1.0
  F  F4784  1  0.51321440  0.01358193  0.46541863  1.0
  F  F4785  1  0.51321440  0.09050500  0.46541863  1.0
  F  F4786  1  0.51321440  0.16742808  0.46541863  1.0
  F  F4787  1  0.51321440  0.24435116  0.46541863  1.0
  F  F4788  1  0.51321440  0.32127423  0.46541863  1.0
  F  F4789  1  0.51321440  0.39819731  0.46541863  1.0
  F  F4790  1  0.51321440  0.47512039  0.46541863  1.0
  F  F4791  1  0.51321440  0.55204346  0.46541863  1.0
  F  F4792  1  0.51321440  0.62896654  0.46541863  1.0
  F  F4793  1  0.51321440  0.70588962  0.46541863  1.0
  F  F4794  1  0.51321440  0.78281270  0.46541863  1.0
  F  F4795  1  0.51321440  0.85973577  0.46541863  1.0
  F  F4796  1  0.51321440  0.93665885  0.46541863  1.0
  F  F4797  1  0.60412349  0.01358193  0.46541863  1.0
  F  F4798  1  0.60412349  0.09050500  0.46541863  1.0
  F  F4799  1  0.60412349  0.16742808  0.46541863  1.0
  F  F4800  1  0.60412349  0.24435116  0.46541863  1.0
  F  F4801  1  0.60412349  0.32127423  0.46541863  1.0
  F  F4802  1  0.60412349  0.39819731  0.46541863  1.0
  F  F4803  1  0.60412349  0.47512039  0.46541863  1.0
  F  F4804  1  0.60412349  0.55204346  0.46541863  1.0
  F  F4805  1  0.60412349  0.62896654  0.46541863  1.0
  F  F4806  1  0.60412349  0.70588962  0.46541863  1.0
  F  F4807  1  0.60412349  0.78281270  0.46541863  1.0
  F  F4808  1  0.60412349  0.85973577  0.46541863  1.0
  F  F4809  1  0.60412349  0.93665885  0.46541863  1.0
  F  F4810  1  0.69503259  0.01358193  0.46541863  1.0
  F  F4811  1  0.69503259  0.09050500  0.46541863  1.0
  F  F4812  1  0.69503259  0.16742808  0.46541863  1.0
  F  F4813  1  0.69503259  0.24435116  0.46541863  1.0
  F  F4814  1  0.69503259  0.32127423  0.46541863  1.0
  F  F4815  1  0.69503259  0.39819731  0.46541863  1.0
  F  F4816  1  0.69503259  0.47512039  0.46541863  1.0
  F  F4817  1  0.69503259  0.55204346  0.46541863  1.0
  F  F4818  1  0.69503259  0.62896654  0.46541863  1.0
  F  F4819  1  0.69503259  0.70588962  0.46541863  1.0
  F  F4820  1  0.69503259  0.78281270  0.46541863  1.0
  F  F4821  1  0.69503259  0.85973577  0.46541863  1.0
  F  F4822  1  0.69503259  0.93665885  0.46541863  1.0
  F  F4823  1  0.78594168  0.01358193  0.46541863  1.0
  F  F4824  1  0.78594168  0.09050500  0.46541863  1.0
  F  F4825  1  0.78594168  0.16742808  0.46541863  1.0
  F  F4826  1  0.78594168  0.24435116  0.46541863  1.0
  F  F4827  1  0.78594168  0.32127423  0.46541863  1.0
  F  F4828  1  0.78594168  0.39819731  0.46541863  1.0
  F  F4829  1  0.78594168  0.47512039  0.46541863  1.0
  F  F4830  1  0.78594168  0.55204346  0.46541863  1.0
  F  F4831  1  0.78594168  0.62896654  0.46541863  1.0
  F  F4832  1  0.78594168  0.70588962  0.46541863  1.0
  F  F4833  1  0.78594168  0.78281270  0.46541863  1.0
  F  F4834  1  0.78594168  0.85973577  0.46541863  1.0
  F  F4835  1  0.78594168  0.93665885  0.46541863  1.0
  F  F4836  1  0.87685077  0.01358193  0.46541863  1.0
  F  F4837  1  0.87685077  0.09050500  0.46541863  1.0
  F  F4838  1  0.87685077  0.16742808  0.46541863  1.0
  F  F4839  1  0.87685077  0.24435116  0.46541863  1.0
  F  F4840  1  0.87685077  0.32127423  0.46541863  1.0
  F  F4841  1  0.87685077  0.39819731  0.46541863  1.0
  F  F4842  1  0.87685077  0.47512039  0.46541863  1.0
  F  F4843  1  0.87685077  0.55204346  0.46541863  1.0
  F  F4844  1  0.87685077  0.62896654  0.46541863  1.0
  F  F4845  1  0.87685077  0.70588962  0.46541863  1.0
  F  F4846  1  0.87685077  0.78281270  0.46541863  1.0
  F  F4847  1  0.87685077  0.85973577  0.46541863  1.0
  F  F4848  1  0.87685077  0.93665885  0.46541863  1.0
  F  F4849  1  0.96775986  0.01358193  0.46541863  1.0
  F  F4850  1  0.96775986  0.09050500  0.46541863  1.0
  F  F4851  1  0.96775986  0.16742808  0.46541863  1.0
  F  F4852  1  0.96775986  0.24435116  0.46541863  1.0
  F  F4853  1  0.96775986  0.32127423  0.46541863  1.0
  F  F4854  1  0.96775986  0.39819731  0.46541863  1.0
  F  F4855  1  0.96775986  0.47512039  0.46541863  1.0
  F  F4856  1  0.96775986  0.55204346  0.46541863  1.0
  F  F4857  1  0.96775986  0.62896654  0.46541863  1.0
  F  F4858  1  0.96775986  0.70588962  0.46541863  1.0
  F  F4859  1  0.96775986  0.78281270  0.46541863  1.0
  F  F4860  1  0.96775986  0.85973577  0.46541863  1.0
  F  F4861  1  0.96775986  0.93665885  0.46541863  1.0
  F  F4862  1  0.08897198  0.03922295  0.53208529  1.0
  F  F4863  1  0.08897198  0.11614603  0.53208529  1.0
  F  F4864  1  0.08897198  0.19306911  0.53208529  1.0
  F  F4865  1  0.08897198  0.26999218  0.53208529  1.0
  F  F4866  1  0.08897198  0.34691526  0.53208529  1.0
  F  F4867  1  0.08897198  0.42383834  0.53208529  1.0
  F  F4868  1  0.08897198  0.50076141  0.53208529  1.0
  F  F4869  1  0.08897198  0.57768449  0.53208529  1.0
  F  F4870  1  0.08897198  0.65460757  0.53208529  1.0
  F  F4871  1  0.08897198  0.73153064  0.53208529  1.0
  F  F4872  1  0.08897198  0.80845372  0.53208529  1.0
  F  F4873  1  0.08897198  0.88537680  0.53208529  1.0
  F  F4874  1  0.08897198  0.96229988  0.53208529  1.0
  F  F4875  1  0.17988107  0.03922295  0.53208529  1.0
  F  F4876  1  0.17988107  0.11614603  0.53208529  1.0
  F  F4877  1  0.17988107  0.19306911  0.53208529  1.0
  F  F4878  1  0.17988107  0.26999218  0.53208529  1.0
  F  F4879  1  0.17988107  0.34691526  0.53208529  1.0
  F  F4880  1  0.17988107  0.42383834  0.53208529  1.0
  F  F4881  1  0.17988107  0.50076141  0.53208529  1.0
  F  F4882  1  0.17988107  0.57768449  0.53208529  1.0
  F  F4883  1  0.17988107  0.65460757  0.53208529  1.0
  F  F4884  1  0.17988107  0.73153064  0.53208529  1.0
  F  F4885  1  0.17988107  0.80845372  0.53208529  1.0
  F  F4886  1  0.17988107  0.88537680  0.53208529  1.0
  F  F4887  1  0.17988107  0.96229988  0.53208529  1.0
  F  F4888  1  0.27079016  0.03922295  0.53208529  1.0
  F  F4889  1  0.27079016  0.11614603  0.53208529  1.0
  F  F4890  1  0.27079016  0.19306911  0.53208529  1.0
  F  F4891  1  0.27079016  0.26999218  0.53208529  1.0
  F  F4892  1  0.27079016  0.34691526  0.53208529  1.0
  F  F4893  1  0.27079016  0.42383834  0.53208529  1.0
  F  F4894  1  0.27079016  0.50076141  0.53208529  1.0
  F  F4895  1  0.27079016  0.57768449  0.53208529  1.0
  F  F4896  1  0.27079016  0.65460757  0.53208529  1.0
  F  F4897  1  0.27079016  0.73153064  0.53208529  1.0
  F  F4898  1  0.27079016  0.80845372  0.53208529  1.0
  F  F4899  1  0.27079016  0.88537680  0.53208529  1.0
  F  F4900  1  0.27079016  0.96229988  0.53208529  1.0
  F  F4901  1  0.36169925  0.03922295  0.53208529  1.0
  F  F4902  1  0.36169925  0.11614603  0.53208529  1.0
  F  F4903  1  0.36169925  0.19306911  0.53208529  1.0
  F  F4904  1  0.36169925  0.26999218  0.53208529  1.0
  F  F4905  1  0.36169925  0.34691526  0.53208529  1.0
  F  F4906  1  0.36169925  0.42383834  0.53208529  1.0
  F  F4907  1  0.36169925  0.50076141  0.53208529  1.0
  F  F4908  1  0.36169925  0.57768449  0.53208529  1.0
  F  F4909  1  0.36169925  0.65460757  0.53208529  1.0
  F  F4910  1  0.36169925  0.73153064  0.53208529  1.0
  F  F4911  1  0.36169925  0.80845372  0.53208529  1.0
  F  F4912  1  0.36169925  0.88537680  0.53208529  1.0
  F  F4913  1  0.36169925  0.96229988  0.53208529  1.0
  F  F4914  1  0.45260834  0.03922295  0.53208529  1.0
  F  F4915  1  0.45260834  0.11614603  0.53208529  1.0
  F  F4916  1  0.45260834  0.19306911  0.53208529  1.0
  F  F4917  1  0.45260834  0.26999218  0.53208529  1.0
  F  F4918  1  0.45260834  0.34691526  0.53208529  1.0
  F  F4919  1  0.45260834  0.42383834  0.53208529  1.0
  F  F4920  1  0.45260834  0.50076141  0.53208529  1.0
  F  F4921  1  0.45260834  0.57768449  0.53208529  1.0
  F  F4922  1  0.45260834  0.65460757  0.53208529  1.0
  F  F4923  1  0.45260834  0.73153064  0.53208529  1.0
  F  F4924  1  0.45260834  0.80845372  0.53208529  1.0
  F  F4925  1  0.45260834  0.88537680  0.53208529  1.0
  F  F4926  1  0.45260834  0.96229988  0.53208529  1.0
  F  F4927  1  0.54351743  0.03922295  0.53208529  1.0
  F  F4928  1  0.54351743  0.11614603  0.53208529  1.0
  F  F4929  1  0.54351743  0.19306911  0.53208529  1.0
  F  F4930  1  0.54351743  0.26999218  0.53208529  1.0
  F  F4931  1  0.54351743  0.34691526  0.53208529  1.0
  F  F4932  1  0.54351743  0.42383834  0.53208529  1.0
  F  F4933  1  0.54351743  0.50076141  0.53208529  1.0
  F  F4934  1  0.54351743  0.57768449  0.53208529  1.0
  F  F4935  1  0.54351743  0.65460757  0.53208529  1.0
  F  F4936  1  0.54351743  0.73153064  0.53208529  1.0
  F  F4937  1  0.54351743  0.80845372  0.53208529  1.0
  F  F4938  1  0.54351743  0.88537680  0.53208529  1.0
  F  F4939  1  0.54351743  0.96229988  0.53208529  1.0
  F  F4940  1  0.63442653  0.03922295  0.53208529  1.0
  F  F4941  1  0.63442653  0.11614603  0.53208529  1.0
  F  F4942  1  0.63442653  0.19306911  0.53208529  1.0
  F  F4943  1  0.63442653  0.26999218  0.53208529  1.0
  F  F4944  1  0.63442653  0.34691526  0.53208529  1.0
  F  F4945  1  0.63442653  0.42383834  0.53208529  1.0
  F  F4946  1  0.63442653  0.50076141  0.53208529  1.0
  F  F4947  1  0.63442653  0.57768449  0.53208529  1.0
  F  F4948  1  0.63442653  0.65460757  0.53208529  1.0
  F  F4949  1  0.63442653  0.73153064  0.53208529  1.0
  F  F4950  1  0.63442653  0.80845372  0.53208529  1.0
  F  F4951  1  0.63442653  0.88537680  0.53208529  1.0
  F  F4952  1  0.63442653  0.96229988  0.53208529  1.0
  F  F4953  1  0.72533562  0.03922295  0.53208529  1.0
  F  F4954  1  0.72533562  0.11614603  0.53208529  1.0
  F  F4955  1  0.72533562  0.19306911  0.53208529  1.0
  F  F4956  1  0.72533562  0.26999218  0.53208529  1.0
  F  F4957  1  0.72533562  0.34691526  0.53208529  1.0
  F  F4958  1  0.72533562  0.42383834  0.53208529  1.0
  F  F4959  1  0.72533562  0.50076141  0.53208529  1.0
  F  F4960  1  0.72533562  0.57768449  0.53208529  1.0
  F  F4961  1  0.72533562  0.65460757  0.53208529  1.0
  F  F4962  1  0.72533562  0.73153064  0.53208529  1.0
  F  F4963  1  0.72533562  0.80845372  0.53208529  1.0
  F  F4964  1  0.72533562  0.88537680  0.53208529  1.0
  F  F4965  1  0.72533562  0.96229988  0.53208529  1.0
  F  F4966  1  0.81624471  0.03922295  0.53208529  1.0
  F  F4967  1  0.81624471  0.11614603  0.53208529  1.0
  F  F4968  1  0.81624471  0.19306911  0.53208529  1.0
  F  F4969  1  0.81624471  0.26999218  0.53208529  1.0
  F  F4970  1  0.81624471  0.34691526  0.53208529  1.0
  F  F4971  1  0.81624471  0.42383834  0.53208529  1.0
  F  F4972  1  0.81624471  0.50076141  0.53208529  1.0
  F  F4973  1  0.81624471  0.57768449  0.53208529  1.0
  F  F4974  1  0.81624471  0.65460757  0.53208529  1.0
  F  F4975  1  0.81624471  0.73153064  0.53208529  1.0
  F  F4976  1  0.81624471  0.80845372  0.53208529  1.0
  F  F4977  1  0.81624471  0.88537680  0.53208529  1.0
  F  F4978  1  0.81624471  0.96229988  0.53208529  1.0
  F  F4979  1  0.90715380  0.03922295  0.53208529  1.0
  F  F4980  1  0.90715380  0.11614603  0.53208529  1.0
  F  F4981  1  0.90715380  0.19306911  0.53208529  1.0
  F  F4982  1  0.90715380  0.26999218  0.53208529  1.0
  F  F4983  1  0.90715380  0.34691526  0.53208529  1.0
  F  F4984  1  0.90715380  0.42383834  0.53208529  1.0
  F  F4985  1  0.90715380  0.50076141  0.53208529  1.0
  F  F4986  1  0.90715380  0.57768449  0.53208529  1.0
  F  F4987  1  0.90715380  0.65460757  0.53208529  1.0
  F  F4988  1  0.90715380  0.73153064  0.53208529  1.0
  F  F4989  1  0.90715380  0.80845372  0.53208529  1.0
  F  F4990  1  0.90715380  0.88537680  0.53208529  1.0
  F  F4991  1  0.90715380  0.96229988  0.53208529  1.0
  F  F4992  1  0.99806289  0.03922295  0.53208529  1.0
  F  F4993  1  0.99806289  0.11614603  0.53208529  1.0
  F  F4994  1  0.99806289  0.19306911  0.53208529  1.0
  F  F4995  1  0.99806289  0.26999218  0.53208529  1.0
  F  F4996  1  0.99806289  0.34691526  0.53208529  1.0
  F  F4997  1  0.99806289  0.42383834  0.53208529  1.0
  F  F4998  1  0.99806289  0.50076141  0.53208529  1.0
  F  F4999  1  0.99806289  0.57768449  0.53208529  1.0
  F  F5000  1  0.99806289  0.65460757  0.53208529  1.0
  F  F5001  1  0.99806289  0.73153064  0.53208529  1.0
  F  F5002  1  0.99806289  0.80845372  0.53208529  1.0
  F  F5003  1  0.99806289  0.88537680  0.53208529  1.0
  F  F5004  1  0.99806289  0.96229988  0.53208529  1.0
  F  F5005  1  0.02836592  0.06486398  0.39875196  1.0
  F  F5006  1  0.02836592  0.14178705  0.39875196  1.0
  F  F5007  1  0.02836592  0.21871013  0.39875196  1.0
  F  F5008  1  0.02836592  0.29563321  0.39875196  1.0
  F  F5009  1  0.02836592  0.37255629  0.39875196  1.0
  F  F5010  1  0.02836592  0.44947936  0.39875196  1.0
  F  F5011  1  0.02836592  0.52640244  0.39875196  1.0
  F  F5012  1  0.02836592  0.60332552  0.39875196  1.0
  F  F5013  1  0.02836592  0.68024859  0.39875196  1.0
  F  F5014  1  0.02836592  0.75717167  0.39875196  1.0
  F  F5015  1  0.02836592  0.83409475  0.39875196  1.0
  F  F5016  1  0.02836592  0.91101782  0.39875196  1.0
  F  F5017  1  0.02836592  0.98794090  0.39875196  1.0
  F  F5018  1  0.11927501  0.06486398  0.39875196  1.0
  F  F5019  1  0.11927501  0.14178705  0.39875196  1.0
  F  F5020  1  0.11927501  0.21871013  0.39875196  1.0
  F  F5021  1  0.11927501  0.29563321  0.39875196  1.0
  F  F5022  1  0.11927501  0.37255629  0.39875196  1.0
  F  F5023  1  0.11927501  0.44947936  0.39875196  1.0
  F  F5024  1  0.11927501  0.52640244  0.39875196  1.0
  F  F5025  1  0.11927501  0.60332552  0.39875196  1.0
  F  F5026  1  0.11927501  0.68024859  0.39875196  1.0
  F  F5027  1  0.11927501  0.75717167  0.39875196  1.0
  F  F5028  1  0.11927501  0.83409475  0.39875196  1.0
  F  F5029  1  0.11927501  0.91101782  0.39875196  1.0
  F  F5030  1  0.11927501  0.98794090  0.39875196  1.0
  F  F5031  1  0.21018410  0.06486398  0.39875196  1.0
  F  F5032  1  0.21018410  0.14178705  0.39875196  1.0
  F  F5033  1  0.21018410  0.21871013  0.39875196  1.0
  F  F5034  1  0.21018410  0.29563321  0.39875196  1.0
  F  F5035  1  0.21018410  0.37255629  0.39875196  1.0
  F  F5036  1  0.21018410  0.44947936  0.39875196  1.0
  F  F5037  1  0.21018410  0.52640244  0.39875196  1.0
  F  F5038  1  0.21018410  0.60332552  0.39875196  1.0
  F  F5039  1  0.21018410  0.68024859  0.39875196  1.0
  F  F5040  1  0.21018410  0.75717167  0.39875196  1.0
  F  F5041  1  0.21018410  0.83409475  0.39875196  1.0
  F  F5042  1  0.21018410  0.91101782  0.39875196  1.0
  F  F5043  1  0.21018410  0.98794090  0.39875196  1.0
  F  F5044  1  0.30109319  0.06486398  0.39875196  1.0
  F  F5045  1  0.30109319  0.14178705  0.39875196  1.0
  F  F5046  1  0.30109319  0.21871013  0.39875196  1.0
  F  F5047  1  0.30109319  0.29563321  0.39875196  1.0
  F  F5048  1  0.30109319  0.37255629  0.39875196  1.0
  F  F5049  1  0.30109319  0.44947936  0.39875196  1.0
  F  F5050  1  0.30109319  0.52640244  0.39875196  1.0
  F  F5051  1  0.30109319  0.60332552  0.39875196  1.0
  F  F5052  1  0.30109319  0.68024859  0.39875196  1.0
  F  F5053  1  0.30109319  0.75717167  0.39875196  1.0
  F  F5054  1  0.30109319  0.83409475  0.39875196  1.0
  F  F5055  1  0.30109319  0.91101782  0.39875196  1.0
  F  F5056  1  0.30109319  0.98794090  0.39875196  1.0
  F  F5057  1  0.39200228  0.06486398  0.39875196  1.0
  F  F5058  1  0.39200228  0.14178705  0.39875196  1.0
  F  F5059  1  0.39200228  0.21871013  0.39875196  1.0
  F  F5060  1  0.39200228  0.29563321  0.39875196  1.0
  F  F5061  1  0.39200228  0.37255629  0.39875196  1.0
  F  F5062  1  0.39200228  0.44947936  0.39875196  1.0
  F  F5063  1  0.39200228  0.52640244  0.39875196  1.0
  F  F5064  1  0.39200228  0.60332552  0.39875196  1.0
  F  F5065  1  0.39200228  0.68024859  0.39875196  1.0
  F  F5066  1  0.39200228  0.75717167  0.39875196  1.0
  F  F5067  1  0.39200228  0.83409475  0.39875196  1.0
  F  F5068  1  0.39200228  0.91101782  0.39875196  1.0
  F  F5069  1  0.39200228  0.98794090  0.39875196  1.0
  F  F5070  1  0.48291137  0.06486398  0.39875196  1.0
  F  F5071  1  0.48291137  0.14178705  0.39875196  1.0
  F  F5072  1  0.48291137  0.21871013  0.39875196  1.0
  F  F5073  1  0.48291137  0.29563321  0.39875196  1.0
  F  F5074  1  0.48291137  0.37255629  0.39875196  1.0
  F  F5075  1  0.48291137  0.44947936  0.39875196  1.0
  F  F5076  1  0.48291137  0.52640244  0.39875196  1.0
  F  F5077  1  0.48291137  0.60332552  0.39875196  1.0
  F  F5078  1  0.48291137  0.68024859  0.39875196  1.0
  F  F5079  1  0.48291137  0.75717167  0.39875196  1.0
  F  F5080  1  0.48291137  0.83409475  0.39875196  1.0
  F  F5081  1  0.48291137  0.91101782  0.39875196  1.0
  F  F5082  1  0.48291137  0.98794090  0.39875196  1.0
  F  F5083  1  0.57382046  0.06486398  0.39875196  1.0
  F  F5084  1  0.57382046  0.14178705  0.39875196  1.0
  F  F5085  1  0.57382046  0.21871013  0.39875196  1.0
  F  F5086  1  0.57382046  0.29563321  0.39875196  1.0
  F  F5087  1  0.57382046  0.37255629  0.39875196  1.0
  F  F5088  1  0.57382046  0.44947936  0.39875196  1.0
  F  F5089  1  0.57382046  0.52640244  0.39875196  1.0
  F  F5090  1  0.57382046  0.60332552  0.39875196  1.0
  F  F5091  1  0.57382046  0.68024859  0.39875196  1.0
  F  F5092  1  0.57382046  0.75717167  0.39875196  1.0
  F  F5093  1  0.57382046  0.83409475  0.39875196  1.0
  F  F5094  1  0.57382046  0.91101782  0.39875196  1.0
  F  F5095  1  0.57382046  0.98794090  0.39875196  1.0
  F  F5096  1  0.66472956  0.06486398  0.39875196  1.0
  F  F5097  1  0.66472956  0.14178705  0.39875196  1.0
  F  F5098  1  0.66472956  0.21871013  0.39875196  1.0
  F  F5099  1  0.66472956  0.29563321  0.39875196  1.0
  F  F5100  1  0.66472956  0.37255629  0.39875196  1.0
  F  F5101  1  0.66472956  0.44947936  0.39875196  1.0
  F  F5102  1  0.66472956  0.52640244  0.39875196  1.0
  F  F5103  1  0.66472956  0.60332552  0.39875196  1.0
  F  F5104  1  0.66472956  0.68024859  0.39875196  1.0
  F  F5105  1  0.66472956  0.75717167  0.39875196  1.0
  F  F5106  1  0.66472956  0.83409475  0.39875196  1.0
  F  F5107  1  0.66472956  0.91101782  0.39875196  1.0
  F  F5108  1  0.66472956  0.98794090  0.39875196  1.0
  F  F5109  1  0.75563865  0.06486398  0.39875196  1.0
  F  F5110  1  0.75563865  0.14178705  0.39875196  1.0
  F  F5111  1  0.75563865  0.21871013  0.39875196  1.0
  F  F5112  1  0.75563865  0.29563321  0.39875196  1.0
  F  F5113  1  0.75563865  0.37255629  0.39875196  1.0
  F  F5114  1  0.75563865  0.44947936  0.39875196  1.0
  F  F5115  1  0.75563865  0.52640244  0.39875196  1.0
  F  F5116  1  0.75563865  0.60332552  0.39875196  1.0
  F  F5117  1  0.75563865  0.68024859  0.39875196  1.0
  F  F5118  1  0.75563865  0.75717167  0.39875196  1.0
  F  F5119  1  0.75563865  0.83409475  0.39875196  1.0
  F  F5120  1  0.75563865  0.91101782  0.39875196  1.0
  F  F5121  1  0.75563865  0.98794090  0.39875196  1.0
  F  F5122  1  0.84654774  0.06486398  0.39875196  1.0
  F  F5123  1  0.84654774  0.14178705  0.39875196  1.0
  F  F5124  1  0.84654774  0.21871013  0.39875196  1.0
  F  F5125  1  0.84654774  0.29563321  0.39875196  1.0
  F  F5126  1  0.84654774  0.37255629  0.39875196  1.0
  F  F5127  1  0.84654774  0.44947936  0.39875196  1.0
  F  F5128  1  0.84654774  0.52640244  0.39875196  1.0
  F  F5129  1  0.84654774  0.60332552  0.39875196  1.0
  F  F5130  1  0.84654774  0.68024859  0.39875196  1.0
  F  F5131  1  0.84654774  0.75717167  0.39875196  1.0
  F  F5132  1  0.84654774  0.83409475  0.39875196  1.0
  F  F5133  1  0.84654774  0.91101782  0.39875196  1.0
  F  F5134  1  0.84654774  0.98794090  0.39875196  1.0
  F  F5135  1  0.93745683  0.06486398  0.39875196  1.0
  F  F5136  1  0.93745683  0.14178705  0.39875196  1.0
  F  F5137  1  0.93745683  0.21871013  0.39875196  1.0
  F  F5138  1  0.93745683  0.29563321  0.39875196  1.0
  F  F5139  1  0.93745683  0.37255629  0.39875196  1.0
  F  F5140  1  0.93745683  0.44947936  0.39875196  1.0
  F  F5141  1  0.93745683  0.52640244  0.39875196  1.0
  F  F5142  1  0.93745683  0.60332552  0.39875196  1.0
  F  F5143  1  0.93745683  0.68024859  0.39875196  1.0
  F  F5144  1  0.93745683  0.75717167  0.39875196  1.0
  F  F5145  1  0.93745683  0.83409475  0.39875196  1.0
  F  F5146  1  0.93745683  0.91101782  0.39875196  1.0
  F  F5147  1  0.93745683  0.98794090  0.39875196  1.0
  F  F5148  1  0.07696289  0.06508707  0.49867924  1.0
  F  F5149  1  0.07696289  0.14201014  0.49867924  1.0
  F  F5150  1  0.07696289  0.21893322  0.49867924  1.0
  F  F5151  1  0.07696289  0.29585630  0.49867924  1.0
  F  F5152  1  0.07696289  0.37277938  0.49867924  1.0
  F  F5153  1  0.07696289  0.44970245  0.49867924  1.0
  F  F5154  1  0.07696289  0.52662553  0.49867924  1.0
  F  F5155  1  0.07696289  0.60354861  0.49867924  1.0
  F  F5156  1  0.07696289  0.68047168  0.49867924  1.0
  F  F5157  1  0.07696289  0.75739476  0.49867924  1.0
  F  F5158  1  0.07696289  0.83431784  0.49867924  1.0
  F  F5159  1  0.07696289  0.91124091  0.49867924  1.0
  F  F5160  1  0.07696289  0.98816399  0.49867924  1.0
  F  F5161  1  0.16787198  0.06508707  0.49867924  1.0
  F  F5162  1  0.16787198  0.14201014  0.49867924  1.0
  F  F5163  1  0.16787198  0.21893322  0.49867924  1.0
  F  F5164  1  0.16787198  0.29585630  0.49867924  1.0
  F  F5165  1  0.16787198  0.37277938  0.49867924  1.0
  F  F5166  1  0.16787198  0.44970245  0.49867924  1.0
  F  F5167  1  0.16787198  0.52662553  0.49867924  1.0
  F  F5168  1  0.16787198  0.60354861  0.49867924  1.0
  F  F5169  1  0.16787198  0.68047168  0.49867924  1.0
  F  F5170  1  0.16787198  0.75739476  0.49867924  1.0
  F  F5171  1  0.16787198  0.83431784  0.49867924  1.0
  F  F5172  1  0.16787198  0.91124091  0.49867924  1.0
  F  F5173  1  0.16787198  0.98816399  0.49867924  1.0
  F  F5174  1  0.25878107  0.06508707  0.49867924  1.0
  F  F5175  1  0.25878107  0.14201014  0.49867924  1.0
  F  F5176  1  0.25878107  0.21893322  0.49867924  1.0
  F  F5177  1  0.25878107  0.29585630  0.49867924  1.0
  F  F5178  1  0.25878107  0.37277938  0.49867924  1.0
  F  F5179  1  0.25878107  0.44970245  0.49867924  1.0
  F  F5180  1  0.25878107  0.52662553  0.49867924  1.0
  F  F5181  1  0.25878107  0.60354861  0.49867924  1.0
  F  F5182  1  0.25878107  0.68047168  0.49867924  1.0
  F  F5183  1  0.25878107  0.75739476  0.49867924  1.0
  F  F5184  1  0.25878107  0.83431784  0.49867924  1.0
  F  F5185  1  0.25878107  0.91124091  0.49867924  1.0
  F  F5186  1  0.25878107  0.98816399  0.49867924  1.0
  F  F5187  1  0.34969016  0.06508707  0.49867924  1.0
  F  F5188  1  0.34969016  0.14201014  0.49867924  1.0
  F  F5189  1  0.34969016  0.21893322  0.49867924  1.0
  F  F5190  1  0.34969016  0.29585630  0.49867924  1.0
  F  F5191  1  0.34969016  0.37277938  0.49867924  1.0
  F  F5192  1  0.34969016  0.44970245  0.49867924  1.0
  F  F5193  1  0.34969016  0.52662553  0.49867924  1.0
  F  F5194  1  0.34969016  0.60354861  0.49867924  1.0
  F  F5195  1  0.34969016  0.68047168  0.49867924  1.0
  F  F5196  1  0.34969016  0.75739476  0.49867924  1.0
  F  F5197  1  0.34969016  0.83431784  0.49867924  1.0
  F  F5198  1  0.34969016  0.91124091  0.49867924  1.0
  F  F5199  1  0.34969016  0.98816399  0.49867924  1.0
  F  F5200  1  0.44059925  0.06508707  0.49867924  1.0
  F  F5201  1  0.44059925  0.14201014  0.49867924  1.0
  F  F5202  1  0.44059925  0.21893322  0.49867924  1.0
  F  F5203  1  0.44059925  0.29585630  0.49867924  1.0
  F  F5204  1  0.44059925  0.37277938  0.49867924  1.0
  F  F5205  1  0.44059925  0.44970245  0.49867924  1.0
  F  F5206  1  0.44059925  0.52662553  0.49867924  1.0
  F  F5207  1  0.44059925  0.60354861  0.49867924  1.0
  F  F5208  1  0.44059925  0.68047168  0.49867924  1.0
  F  F5209  1  0.44059925  0.75739476  0.49867924  1.0
  F  F5210  1  0.44059925  0.83431784  0.49867924  1.0
  F  F5211  1  0.44059925  0.91124091  0.49867924  1.0
  F  F5212  1  0.44059925  0.98816399  0.49867924  1.0
  F  F5213  1  0.53150834  0.06508707  0.49867924  1.0
  F  F5214  1  0.53150834  0.14201014  0.49867924  1.0
  F  F5215  1  0.53150834  0.21893322  0.49867924  1.0
  F  F5216  1  0.53150834  0.29585630  0.49867924  1.0
  F  F5217  1  0.53150834  0.37277938  0.49867924  1.0
  F  F5218  1  0.53150834  0.44970245  0.49867924  1.0
  F  F5219  1  0.53150834  0.52662553  0.49867924  1.0
  F  F5220  1  0.53150834  0.60354861  0.49867924  1.0
  F  F5221  1  0.53150834  0.68047168  0.49867924  1.0
  F  F5222  1  0.53150834  0.75739476  0.49867924  1.0
  F  F5223  1  0.53150834  0.83431784  0.49867924  1.0
  F  F5224  1  0.53150834  0.91124091  0.49867924  1.0
  F  F5225  1  0.53150834  0.98816399  0.49867924  1.0
  F  F5226  1  0.62241744  0.06508707  0.49867924  1.0
  F  F5227  1  0.62241744  0.14201014  0.49867924  1.0
  F  F5228  1  0.62241744  0.21893322  0.49867924  1.0
  F  F5229  1  0.62241744  0.29585630  0.49867924  1.0
  F  F5230  1  0.62241744  0.37277938  0.49867924  1.0
  F  F5231  1  0.62241744  0.44970245  0.49867924  1.0
  F  F5232  1  0.62241744  0.52662553  0.49867924  1.0
  F  F5233  1  0.62241744  0.60354861  0.49867924  1.0
  F  F5234  1  0.62241744  0.68047168  0.49867924  1.0
  F  F5235  1  0.62241744  0.75739476  0.49867924  1.0
  F  F5236  1  0.62241744  0.83431784  0.49867924  1.0
  F  F5237  1  0.62241744  0.91124091  0.49867924  1.0
  F  F5238  1  0.62241744  0.98816399  0.49867924  1.0
  F  F5239  1  0.71332653  0.06508707  0.49867924  1.0
  F  F5240  1  0.71332653  0.14201014  0.49867924  1.0
  F  F5241  1  0.71332653  0.21893322  0.49867924  1.0
  F  F5242  1  0.71332653  0.29585630  0.49867924  1.0
  F  F5243  1  0.71332653  0.37277938  0.49867924  1.0
  F  F5244  1  0.71332653  0.44970245  0.49867924  1.0
  F  F5245  1  0.71332653  0.52662553  0.49867924  1.0
  F  F5246  1  0.71332653  0.60354861  0.49867924  1.0
  F  F5247  1  0.71332653  0.68047168  0.49867924  1.0
  F  F5248  1  0.71332653  0.75739476  0.49867924  1.0
  F  F5249  1  0.71332653  0.83431784  0.49867924  1.0
  F  F5250  1  0.71332653  0.91124091  0.49867924  1.0
  F  F5251  1  0.71332653  0.98816399  0.49867924  1.0
  F  F5252  1  0.80423562  0.06508707  0.49867924  1.0
  F  F5253  1  0.80423562  0.14201014  0.49867924  1.0
  F  F5254  1  0.80423562  0.21893322  0.49867924  1.0
  F  F5255  1  0.80423562  0.29585630  0.49867924  1.0
  F  F5256  1  0.80423562  0.37277938  0.49867924  1.0
  F  F5257  1  0.80423562  0.44970245  0.49867924  1.0
  F  F5258  1  0.80423562  0.52662553  0.49867924  1.0
  F  F5259  1  0.80423562  0.60354861  0.49867924  1.0
  F  F5260  1  0.80423562  0.68047168  0.49867924  1.0
  F  F5261  1  0.80423562  0.75739476  0.49867924  1.0
  F  F5262  1  0.80423562  0.83431784  0.49867924  1.0
  F  F5263  1  0.80423562  0.91124091  0.49867924  1.0
  F  F5264  1  0.80423562  0.98816399  0.49867924  1.0
  F  F5265  1  0.89514471  0.06508707  0.49867924  1.0
  F  F5266  1  0.89514471  0.14201014  0.49867924  1.0
  F  F5267  1  0.89514471  0.21893322  0.49867924  1.0
  F  F5268  1  0.89514471  0.29585630  0.49867924  1.0
  F  F5269  1  0.89514471  0.37277938  0.49867924  1.0
  F  F5270  1  0.89514471  0.44970245  0.49867924  1.0
  F  F5271  1  0.89514471  0.52662553  0.49867924  1.0
  F  F5272  1  0.89514471  0.60354861  0.49867924  1.0
  F  F5273  1  0.89514471  0.68047168  0.49867924  1.0
  F  F5274  1  0.89514471  0.75739476  0.49867924  1.0
  F  F5275  1  0.89514471  0.83431784  0.49867924  1.0
  F  F5276  1  0.89514471  0.91124091  0.49867924  1.0
  F  F5277  1  0.89514471  0.98816399  0.49867924  1.0
  F  F5278  1  0.98605380  0.06508707  0.49867924  1.0
  F  F5279  1  0.98605380  0.14201014  0.49867924  1.0
  F  F5280  1  0.98605380  0.21893322  0.49867924  1.0
  F  F5281  1  0.98605380  0.29585630  0.49867924  1.0
  F  F5282  1  0.98605380  0.37277938  0.49867924  1.0
  F  F5283  1  0.98605380  0.44970245  0.49867924  1.0
  F  F5284  1  0.98605380  0.52662553  0.49867924  1.0
  F  F5285  1  0.98605380  0.60354861  0.49867924  1.0
  F  F5286  1  0.98605380  0.68047168  0.49867924  1.0
  F  F5287  1  0.98605380  0.75739476  0.49867924  1.0
  F  F5288  1  0.98605380  0.83431784  0.49867924  1.0
  F  F5289  1  0.98605380  0.91124091  0.49867924  1.0
  F  F5290  1  0.98605380  0.98816399  0.49867924  1.0
  F  F5291  1  0.01635683  0.01380502  0.56534591  1.0
  F  F5292  1  0.01635683  0.09072809  0.56534591  1.0
  F  F5293  1  0.01635683  0.16765117  0.56534591  1.0
  F  F5294  1  0.01635683  0.24457425  0.56534591  1.0
  F  F5295  1  0.01635683  0.32149732  0.56534591  1.0
  F  F5296  1  0.01635683  0.39842040  0.56534591  1.0
  F  F5297  1  0.01635683  0.47534348  0.56534591  1.0
  F  F5298  1  0.01635683  0.55226655  0.56534591  1.0
  F  F5299  1  0.01635683  0.62918963  0.56534591  1.0
  F  F5300  1  0.01635683  0.70611271  0.56534591  1.0
  F  F5301  1  0.01635683  0.78303579  0.56534591  1.0
  F  F5302  1  0.01635683  0.85995886  0.56534591  1.0
  F  F5303  1  0.01635683  0.93688194  0.56534591  1.0
  F  F5304  1  0.10726592  0.01380502  0.56534591  1.0
  F  F5305  1  0.10726592  0.09072809  0.56534591  1.0
  F  F5306  1  0.10726592  0.16765117  0.56534591  1.0
  F  F5307  1  0.10726592  0.24457425  0.56534591  1.0
  F  F5308  1  0.10726592  0.32149732  0.56534591  1.0
  F  F5309  1  0.10726592  0.39842040  0.56534591  1.0
  F  F5310  1  0.10726592  0.47534348  0.56534591  1.0
  F  F5311  1  0.10726592  0.55226655  0.56534591  1.0
  F  F5312  1  0.10726592  0.62918963  0.56534591  1.0
  F  F5313  1  0.10726592  0.70611271  0.56534591  1.0
  F  F5314  1  0.10726592  0.78303579  0.56534591  1.0
  F  F5315  1  0.10726592  0.85995886  0.56534591  1.0
  F  F5316  1  0.10726592  0.93688194  0.56534591  1.0
  F  F5317  1  0.19817501  0.01380502  0.56534591  1.0
  F  F5318  1  0.19817501  0.09072809  0.56534591  1.0
  F  F5319  1  0.19817501  0.16765117  0.56534591  1.0
  F  F5320  1  0.19817501  0.24457425  0.56534591  1.0
  F  F5321  1  0.19817501  0.32149732  0.56534591  1.0
  F  F5322  1  0.19817501  0.39842040  0.56534591  1.0
  F  F5323  1  0.19817501  0.47534348  0.56534591  1.0
  F  F5324  1  0.19817501  0.55226655  0.56534591  1.0
  F  F5325  1  0.19817501  0.62918963  0.56534591  1.0
  F  F5326  1  0.19817501  0.70611271  0.56534591  1.0
  F  F5327  1  0.19817501  0.78303579  0.56534591  1.0
  F  F5328  1  0.19817501  0.85995886  0.56534591  1.0
  F  F5329  1  0.19817501  0.93688194  0.56534591  1.0
  F  F5330  1  0.28908410  0.01380502  0.56534591  1.0
  F  F5331  1  0.28908410  0.09072809  0.56534591  1.0
  F  F5332  1  0.28908410  0.16765117  0.56534591  1.0
  F  F5333  1  0.28908410  0.24457425  0.56534591  1.0
  F  F5334  1  0.28908410  0.32149732  0.56534591  1.0
  F  F5335  1  0.28908410  0.39842040  0.56534591  1.0
  F  F5336  1  0.28908410  0.47534348  0.56534591  1.0
  F  F5337  1  0.28908410  0.55226655  0.56534591  1.0
  F  F5338  1  0.28908410  0.62918963  0.56534591  1.0
  F  F5339  1  0.28908410  0.70611271  0.56534591  1.0
  F  F5340  1  0.28908410  0.78303579  0.56534591  1.0
  F  F5341  1  0.28908410  0.85995886  0.56534591  1.0
  F  F5342  1  0.28908410  0.93688194  0.56534591  1.0
  F  F5343  1  0.37999319  0.01380502  0.56534591  1.0
  F  F5344  1  0.37999319  0.09072809  0.56534591  1.0
  F  F5345  1  0.37999319  0.16765117  0.56534591  1.0
  F  F5346  1  0.37999319  0.24457425  0.56534591  1.0
  F  F5347  1  0.37999319  0.32149732  0.56534591  1.0
  F  F5348  1  0.37999319  0.39842040  0.56534591  1.0
  F  F5349  1  0.37999319  0.47534348  0.56534591  1.0
  F  F5350  1  0.37999319  0.55226655  0.56534591  1.0
  F  F5351  1  0.37999319  0.62918963  0.56534591  1.0
  F  F5352  1  0.37999319  0.70611271  0.56534591  1.0
  F  F5353  1  0.37999319  0.78303579  0.56534591  1.0
  F  F5354  1  0.37999319  0.85995886  0.56534591  1.0
  F  F5355  1  0.37999319  0.93688194  0.56534591  1.0
  F  F5356  1  0.47090228  0.01380502  0.56534591  1.0
  F  F5357  1  0.47090228  0.09072809  0.56534591  1.0
  F  F5358  1  0.47090228  0.16765117  0.56534591  1.0
  F  F5359  1  0.47090228  0.24457425  0.56534591  1.0
  F  F5360  1  0.47090228  0.32149732  0.56534591  1.0
  F  F5361  1  0.47090228  0.39842040  0.56534591  1.0
  F  F5362  1  0.47090228  0.47534348  0.56534591  1.0
  F  F5363  1  0.47090228  0.55226655  0.56534591  1.0
  F  F5364  1  0.47090228  0.62918963  0.56534591  1.0
  F  F5365  1  0.47090228  0.70611271  0.56534591  1.0
  F  F5366  1  0.47090228  0.78303579  0.56534591  1.0
  F  F5367  1  0.47090228  0.85995886  0.56534591  1.0
  F  F5368  1  0.47090228  0.93688194  0.56534591  1.0
  F  F5369  1  0.56181137  0.01380502  0.56534591  1.0
  F  F5370  1  0.56181137  0.09072809  0.56534591  1.0
  F  F5371  1  0.56181137  0.16765117  0.56534591  1.0
  F  F5372  1  0.56181137  0.24457425  0.56534591  1.0
  F  F5373  1  0.56181137  0.32149732  0.56534591  1.0
  F  F5374  1  0.56181137  0.39842040  0.56534591  1.0
  F  F5375  1  0.56181137  0.47534348  0.56534591  1.0
  F  F5376  1  0.56181137  0.55226655  0.56534591  1.0
  F  F5377  1  0.56181137  0.62918963  0.56534591  1.0
  F  F5378  1  0.56181137  0.70611271  0.56534591  1.0
  F  F5379  1  0.56181137  0.78303579  0.56534591  1.0
  F  F5380  1  0.56181137  0.85995886  0.56534591  1.0
  F  F5381  1  0.56181137  0.93688194  0.56534591  1.0
  F  F5382  1  0.65272047  0.01380502  0.56534591  1.0
  F  F5383  1  0.65272047  0.09072809  0.56534591  1.0
  F  F5384  1  0.65272047  0.16765117  0.56534591  1.0
  F  F5385  1  0.65272047  0.24457425  0.56534591  1.0
  F  F5386  1  0.65272047  0.32149732  0.56534591  1.0
  F  F5387  1  0.65272047  0.39842040  0.56534591  1.0
  F  F5388  1  0.65272047  0.47534348  0.56534591  1.0
  F  F5389  1  0.65272047  0.55226655  0.56534591  1.0
  F  F5390  1  0.65272047  0.62918963  0.56534591  1.0
  F  F5391  1  0.65272047  0.70611271  0.56534591  1.0
  F  F5392  1  0.65272047  0.78303579  0.56534591  1.0
  F  F5393  1  0.65272047  0.85995886  0.56534591  1.0
  F  F5394  1  0.65272047  0.93688194  0.56534591  1.0
  F  F5395  1  0.74362956  0.01380502  0.56534591  1.0
  F  F5396  1  0.74362956  0.09072809  0.56534591  1.0
  F  F5397  1  0.74362956  0.16765117  0.56534591  1.0
  F  F5398  1  0.74362956  0.24457425  0.56534591  1.0
  F  F5399  1  0.74362956  0.32149732  0.56534591  1.0
  F  F5400  1  0.74362956  0.39842040  0.56534591  1.0
  F  F5401  1  0.74362956  0.47534348  0.56534591  1.0
  F  F5402  1  0.74362956  0.55226655  0.56534591  1.0
  F  F5403  1  0.74362956  0.62918963  0.56534591  1.0
  F  F5404  1  0.74362956  0.70611271  0.56534591  1.0
  F  F5405  1  0.74362956  0.78303579  0.56534591  1.0
  F  F5406  1  0.74362956  0.85995886  0.56534591  1.0
  F  F5407  1  0.74362956  0.93688194  0.56534591  1.0
  F  F5408  1  0.83453865  0.01380502  0.56534591  1.0
  F  F5409  1  0.83453865  0.09072809  0.56534591  1.0
  F  F5410  1  0.83453865  0.16765117  0.56534591  1.0
  F  F5411  1  0.83453865  0.24457425  0.56534591  1.0
  F  F5412  1  0.83453865  0.32149732  0.56534591  1.0
  F  F5413  1  0.83453865  0.39842040  0.56534591  1.0
  F  F5414  1  0.83453865  0.47534348  0.56534591  1.0
  F  F5415  1  0.83453865  0.55226655  0.56534591  1.0
  F  F5416  1  0.83453865  0.62918963  0.56534591  1.0
  F  F5417  1  0.83453865  0.70611271  0.56534591  1.0
  F  F5418  1  0.83453865  0.78303579  0.56534591  1.0
  F  F5419  1  0.83453865  0.85995886  0.56534591  1.0
  F  F5420  1  0.83453865  0.93688194  0.56534591  1.0
  F  F5421  1  0.92544774  0.01380502  0.56534591  1.0
  F  F5422  1  0.92544774  0.09072809  0.56534591  1.0
  F  F5423  1  0.92544774  0.16765117  0.56534591  1.0
  F  F5424  1  0.92544774  0.24457425  0.56534591  1.0
  F  F5425  1  0.92544774  0.32149732  0.56534591  1.0
  F  F5426  1  0.92544774  0.39842040  0.56534591  1.0
  F  F5427  1  0.92544774  0.47534348  0.56534591  1.0
  F  F5428  1  0.92544774  0.55226655  0.56534591  1.0
  F  F5429  1  0.92544774  0.62918963  0.56534591  1.0
  F  F5430  1  0.92544774  0.70611271  0.56534591  1.0
  F  F5431  1  0.92544774  0.78303579  0.56534591  1.0
  F  F5432  1  0.92544774  0.85995886  0.56534591  1.0
  F  F5433  1  0.92544774  0.93688194  0.56534591  1.0
  F  F5434  1  0.04665986  0.03944604  0.43201257  1.0
  F  F5435  1  0.04665986  0.11636912  0.43201257  1.0
  F  F5436  1  0.04665986  0.19329220  0.43201257  1.0
  F  F5437  1  0.04665986  0.27021527  0.43201257  1.0
  F  F5438  1  0.04665986  0.34713835  0.43201257  1.0
  F  F5439  1  0.04665986  0.42406143  0.43201257  1.0
  F  F5440  1  0.04665986  0.50098450  0.43201257  1.0
  F  F5441  1  0.04665986  0.57790758  0.43201257  1.0
  F  F5442  1  0.04665986  0.65483066  0.43201257  1.0
  F  F5443  1  0.04665986  0.73175373  0.43201257  1.0
  F  F5444  1  0.04665986  0.80867681  0.43201257  1.0
  F  F5445  1  0.04665986  0.88559989  0.43201257  1.0
  F  F5446  1  0.04665986  0.96252296  0.43201257  1.0
  F  F5447  1  0.13756895  0.03944604  0.43201257  1.0
  F  F5448  1  0.13756895  0.11636912  0.43201257  1.0
  F  F5449  1  0.13756895  0.19329220  0.43201257  1.0
  F  F5450  1  0.13756895  0.27021527  0.43201257  1.0
  F  F5451  1  0.13756895  0.34713835  0.43201257  1.0
  F  F5452  1  0.13756895  0.42406143  0.43201257  1.0
  F  F5453  1  0.13756895  0.50098450  0.43201257  1.0
  F  F5454  1  0.13756895  0.57790758  0.43201257  1.0
  F  F5455  1  0.13756895  0.65483066  0.43201257  1.0
  F  F5456  1  0.13756895  0.73175373  0.43201257  1.0
  F  F5457  1  0.13756895  0.80867681  0.43201257  1.0
  F  F5458  1  0.13756895  0.88559989  0.43201257  1.0
  F  F5459  1  0.13756895  0.96252296  0.43201257  1.0
  F  F5460  1  0.22847804  0.03944604  0.43201257  1.0
  F  F5461  1  0.22847804  0.11636912  0.43201257  1.0
  F  F5462  1  0.22847804  0.19329220  0.43201257  1.0
  F  F5463  1  0.22847804  0.27021527  0.43201257  1.0
  F  F5464  1  0.22847804  0.34713835  0.43201257  1.0
  F  F5465  1  0.22847804  0.42406143  0.43201257  1.0
  F  F5466  1  0.22847804  0.50098450  0.43201257  1.0
  F  F5467  1  0.22847804  0.57790758  0.43201257  1.0
  F  F5468  1  0.22847804  0.65483066  0.43201257  1.0
  F  F5469  1  0.22847804  0.73175373  0.43201257  1.0
  F  F5470  1  0.22847804  0.80867681  0.43201257  1.0
  F  F5471  1  0.22847804  0.88559989  0.43201257  1.0
  F  F5472  1  0.22847804  0.96252296  0.43201257  1.0
  F  F5473  1  0.31938713  0.03944604  0.43201257  1.0
  F  F5474  1  0.31938713  0.11636912  0.43201257  1.0
  F  F5475  1  0.31938713  0.19329220  0.43201257  1.0
  F  F5476  1  0.31938713  0.27021527  0.43201257  1.0
  F  F5477  1  0.31938713  0.34713835  0.43201257  1.0
  F  F5478  1  0.31938713  0.42406143  0.43201257  1.0
  F  F5479  1  0.31938713  0.50098450  0.43201257  1.0
  F  F5480  1  0.31938713  0.57790758  0.43201257  1.0
  F  F5481  1  0.31938713  0.65483066  0.43201257  1.0
  F  F5482  1  0.31938713  0.73175373  0.43201257  1.0
  F  F5483  1  0.31938713  0.80867681  0.43201257  1.0
  F  F5484  1  0.31938713  0.88559989  0.43201257  1.0
  F  F5485  1  0.31938713  0.96252296  0.43201257  1.0
  F  F5486  1  0.41029622  0.03944604  0.43201257  1.0
  F  F5487  1  0.41029622  0.11636912  0.43201257  1.0
  F  F5488  1  0.41029622  0.19329220  0.43201257  1.0
  F  F5489  1  0.41029622  0.27021527  0.43201257  1.0
  F  F5490  1  0.41029622  0.34713835  0.43201257  1.0
  F  F5491  1  0.41029622  0.42406143  0.43201257  1.0
  F  F5492  1  0.41029622  0.50098450  0.43201257  1.0
  F  F5493  1  0.41029622  0.57790758  0.43201257  1.0
  F  F5494  1  0.41029622  0.65483066  0.43201257  1.0
  F  F5495  1  0.41029622  0.73175373  0.43201257  1.0
  F  F5496  1  0.41029622  0.80867681  0.43201257  1.0
  F  F5497  1  0.41029622  0.88559989  0.43201257  1.0
  F  F5498  1  0.41029622  0.96252296  0.43201257  1.0
  F  F5499  1  0.50120531  0.03944604  0.43201257  1.0
  F  F5500  1  0.50120531  0.11636912  0.43201257  1.0
  F  F5501  1  0.50120531  0.19329220  0.43201257  1.0
  F  F5502  1  0.50120531  0.27021527  0.43201257  1.0
  F  F5503  1  0.50120531  0.34713835  0.43201257  1.0
  F  F5504  1  0.50120531  0.42406143  0.43201257  1.0
  F  F5505  1  0.50120531  0.50098450  0.43201257  1.0
  F  F5506  1  0.50120531  0.57790758  0.43201257  1.0
  F  F5507  1  0.50120531  0.65483066  0.43201257  1.0
  F  F5508  1  0.50120531  0.73175373  0.43201257  1.0
  F  F5509  1  0.50120531  0.80867681  0.43201257  1.0
  F  F5510  1  0.50120531  0.88559989  0.43201257  1.0
  F  F5511  1  0.50120531  0.96252296  0.43201257  1.0
  F  F5512  1  0.59211440  0.03944604  0.43201257  1.0
  F  F5513  1  0.59211440  0.11636912  0.43201257  1.0
  F  F5514  1  0.59211440  0.19329220  0.43201257  1.0
  F  F5515  1  0.59211440  0.27021527  0.43201257  1.0
  F  F5516  1  0.59211440  0.34713835  0.43201257  1.0
  F  F5517  1  0.59211440  0.42406143  0.43201257  1.0
  F  F5518  1  0.59211440  0.50098450  0.43201257  1.0
  F  F5519  1  0.59211440  0.57790758  0.43201257  1.0
  F  F5520  1  0.59211440  0.65483066  0.43201257  1.0
  F  F5521  1  0.59211440  0.73175373  0.43201257  1.0
  F  F5522  1  0.59211440  0.80867681  0.43201257  1.0
  F  F5523  1  0.59211440  0.88559989  0.43201257  1.0
  F  F5524  1  0.59211440  0.96252296  0.43201257  1.0
  F  F5525  1  0.68302350  0.03944604  0.43201257  1.0
  F  F5526  1  0.68302350  0.11636912  0.43201257  1.0
  F  F5527  1  0.68302350  0.19329220  0.43201257  1.0
  F  F5528  1  0.68302350  0.27021527  0.43201257  1.0
  F  F5529  1  0.68302350  0.34713835  0.43201257  1.0
  F  F5530  1  0.68302350  0.42406143  0.43201257  1.0
  F  F5531  1  0.68302350  0.50098450  0.43201257  1.0
  F  F5532  1  0.68302350  0.57790758  0.43201257  1.0
  F  F5533  1  0.68302350  0.65483066  0.43201257  1.0
  F  F5534  1  0.68302350  0.73175373  0.43201257  1.0
  F  F5535  1  0.68302350  0.80867681  0.43201257  1.0
  F  F5536  1  0.68302350  0.88559989  0.43201257  1.0
  F  F5537  1  0.68302350  0.96252296  0.43201257  1.0
  F  F5538  1  0.77393259  0.03944604  0.43201257  1.0
  F  F5539  1  0.77393259  0.11636912  0.43201257  1.0
  F  F5540  1  0.77393259  0.19329220  0.43201257  1.0
  F  F5541  1  0.77393259  0.27021527  0.43201257  1.0
  F  F5542  1  0.77393259  0.34713835  0.43201257  1.0
  F  F5543  1  0.77393259  0.42406143  0.43201257  1.0
  F  F5544  1  0.77393259  0.50098450  0.43201257  1.0
  F  F5545  1  0.77393259  0.57790758  0.43201257  1.0
  F  F5546  1  0.77393259  0.65483066  0.43201257  1.0
  F  F5547  1  0.77393259  0.73175373  0.43201257  1.0
  F  F5548  1  0.77393259  0.80867681  0.43201257  1.0
  F  F5549  1  0.77393259  0.88559989  0.43201257  1.0
  F  F5550  1  0.77393259  0.96252296  0.43201257  1.0
  F  F5551  1  0.86484168  0.03944604  0.43201257  1.0
  F  F5552  1  0.86484168  0.11636912  0.43201257  1.0
  F  F5553  1  0.86484168  0.19329220  0.43201257  1.0
  F  F5554  1  0.86484168  0.27021527  0.43201257  1.0
  F  F5555  1  0.86484168  0.34713835  0.43201257  1.0
  F  F5556  1  0.86484168  0.42406143  0.43201257  1.0
  F  F5557  1  0.86484168  0.50098450  0.43201257  1.0
  F  F5558  1  0.86484168  0.57790758  0.43201257  1.0
  F  F5559  1  0.86484168  0.65483066  0.43201257  1.0
  F  F5560  1  0.86484168  0.73175373  0.43201257  1.0
  F  F5561  1  0.86484168  0.80867681  0.43201257  1.0
  F  F5562  1  0.86484168  0.88559989  0.43201257  1.0
  F  F5563  1  0.86484168  0.96252296  0.43201257  1.0
  F  F5564  1  0.95575077  0.03944604  0.43201257  1.0
  F  F5565  1  0.95575077  0.11636912  0.43201257  1.0
  F  F5566  1  0.95575077  0.19329220  0.43201257  1.0
  F  F5567  1  0.95575077  0.27021527  0.43201257  1.0
  F  F5568  1  0.95575077  0.34713835  0.43201257  1.0
  F  F5569  1  0.95575077  0.42406143  0.43201257  1.0
  F  F5570  1  0.95575077  0.50098450  0.43201257  1.0
  F  F5571  1  0.95575077  0.57790758  0.43201257  1.0
  F  F5572  1  0.95575077  0.65483066  0.43201257  1.0
  F  F5573  1  0.95575077  0.73175373  0.43201257  1.0
  F  F5574  1  0.95575077  0.80867681  0.43201257  1.0
  F  F5575  1  0.95575077  0.88559989  0.43201257  1.0
  F  F5576  1  0.95575077  0.96252296  0.43201257  1.0
  F  F5577  1  0.03224014  0.06334115  0.49520888  1.0
  F  F5578  1  0.03224014  0.14026423  0.49520888  1.0
  F  F5579  1  0.03224014  0.21718730  0.49520888  1.0
  F  F5580  1  0.03224014  0.29411038  0.49520888  1.0
  F  F5581  1  0.03224014  0.37103346  0.49520888  1.0
  F  F5582  1  0.03224014  0.44795654  0.49520888  1.0
  F  F5583  1  0.03224014  0.52487961  0.49520888  1.0
  F  F5584  1  0.03224014  0.60180269  0.49520888  1.0
  F  F5585  1  0.03224014  0.67872577  0.49520888  1.0
  F  F5586  1  0.03224014  0.75564884  0.49520888  1.0
  F  F5587  1  0.03224014  0.83257192  0.49520888  1.0
  F  F5588  1  0.03224014  0.90949500  0.49520888  1.0
  F  F5589  1  0.03224014  0.98641807  0.49520888  1.0
  F  F5590  1  0.12314923  0.06334115  0.49520888  1.0
  F  F5591  1  0.12314923  0.14026423  0.49520888  1.0
  F  F5592  1  0.12314923  0.21718730  0.49520888  1.0
  F  F5593  1  0.12314923  0.29411038  0.49520888  1.0
  F  F5594  1  0.12314923  0.37103346  0.49520888  1.0
  F  F5595  1  0.12314923  0.44795654  0.49520888  1.0
  F  F5596  1  0.12314923  0.52487961  0.49520888  1.0
  F  F5597  1  0.12314923  0.60180269  0.49520888  1.0
  F  F5598  1  0.12314923  0.67872577  0.49520888  1.0
  F  F5599  1  0.12314923  0.75564884  0.49520888  1.0
  F  F5600  1  0.12314923  0.83257192  0.49520888  1.0
  F  F5601  1  0.12314923  0.90949500  0.49520888  1.0
  F  F5602  1  0.12314923  0.98641807  0.49520888  1.0
  F  F5603  1  0.21405832  0.06334115  0.49520888  1.0
  F  F5604  1  0.21405832  0.14026423  0.49520888  1.0
  F  F5605  1  0.21405832  0.21718730  0.49520888  1.0
  F  F5606  1  0.21405832  0.29411038  0.49520888  1.0
  F  F5607  1  0.21405832  0.37103346  0.49520888  1.0
  F  F5608  1  0.21405832  0.44795654  0.49520888  1.0
  F  F5609  1  0.21405832  0.52487961  0.49520888  1.0
  F  F5610  1  0.21405832  0.60180269  0.49520888  1.0
  F  F5611  1  0.21405832  0.67872577  0.49520888  1.0
  F  F5612  1  0.21405832  0.75564884  0.49520888  1.0
  F  F5613  1  0.21405832  0.83257192  0.49520888  1.0
  F  F5614  1  0.21405832  0.90949500  0.49520888  1.0
  F  F5615  1  0.21405832  0.98641807  0.49520888  1.0
  F  F5616  1  0.30496741  0.06334115  0.49520888  1.0
  F  F5617  1  0.30496741  0.14026423  0.49520888  1.0
  F  F5618  1  0.30496741  0.21718730  0.49520888  1.0
  F  F5619  1  0.30496741  0.29411038  0.49520888  1.0
  F  F5620  1  0.30496741  0.37103346  0.49520888  1.0
  F  F5621  1  0.30496741  0.44795654  0.49520888  1.0
  F  F5622  1  0.30496741  0.52487961  0.49520888  1.0
  F  F5623  1  0.30496741  0.60180269  0.49520888  1.0
  F  F5624  1  0.30496741  0.67872577  0.49520888  1.0
  F  F5625  1  0.30496741  0.75564884  0.49520888  1.0
  F  F5626  1  0.30496741  0.83257192  0.49520888  1.0
  F  F5627  1  0.30496741  0.90949500  0.49520888  1.0
  F  F5628  1  0.30496741  0.98641807  0.49520888  1.0
  F  F5629  1  0.39587651  0.06334115  0.49520888  1.0
  F  F5630  1  0.39587651  0.14026423  0.49520888  1.0
  F  F5631  1  0.39587651  0.21718730  0.49520888  1.0
  F  F5632  1  0.39587651  0.29411038  0.49520888  1.0
  F  F5633  1  0.39587651  0.37103346  0.49520888  1.0
  F  F5634  1  0.39587651  0.44795654  0.49520888  1.0
  F  F5635  1  0.39587651  0.52487961  0.49520888  1.0
  F  F5636  1  0.39587651  0.60180269  0.49520888  1.0
  F  F5637  1  0.39587651  0.67872577  0.49520888  1.0
  F  F5638  1  0.39587651  0.75564884  0.49520888  1.0
  F  F5639  1  0.39587651  0.83257192  0.49520888  1.0
  F  F5640  1  0.39587651  0.90949500  0.49520888  1.0
  F  F5641  1  0.39587651  0.98641807  0.49520888  1.0
  F  F5642  1  0.48678560  0.06334115  0.49520888  1.0
  F  F5643  1  0.48678560  0.14026423  0.49520888  1.0
  F  F5644  1  0.48678560  0.21718730  0.49520888  1.0
  F  F5645  1  0.48678560  0.29411038  0.49520888  1.0
  F  F5646  1  0.48678560  0.37103346  0.49520888  1.0
  F  F5647  1  0.48678560  0.44795654  0.49520888  1.0
  F  F5648  1  0.48678560  0.52487961  0.49520888  1.0
  F  F5649  1  0.48678560  0.60180269  0.49520888  1.0
  F  F5650  1  0.48678560  0.67872577  0.49520888  1.0
  F  F5651  1  0.48678560  0.75564884  0.49520888  1.0
  F  F5652  1  0.48678560  0.83257192  0.49520888  1.0
  F  F5653  1  0.48678560  0.90949500  0.49520888  1.0
  F  F5654  1  0.48678560  0.98641807  0.49520888  1.0
  F  F5655  1  0.57769469  0.06334115  0.49520888  1.0
  F  F5656  1  0.57769469  0.14026423  0.49520888  1.0
  F  F5657  1  0.57769469  0.21718730  0.49520888  1.0
  F  F5658  1  0.57769469  0.29411038  0.49520888  1.0
  F  F5659  1  0.57769469  0.37103346  0.49520888  1.0
  F  F5660  1  0.57769469  0.44795654  0.49520888  1.0
  F  F5661  1  0.57769469  0.52487961  0.49520888  1.0
  F  F5662  1  0.57769469  0.60180269  0.49520888  1.0
  F  F5663  1  0.57769469  0.67872577  0.49520888  1.0
  F  F5664  1  0.57769469  0.75564884  0.49520888  1.0
  F  F5665  1  0.57769469  0.83257192  0.49520888  1.0
  F  F5666  1  0.57769469  0.90949500  0.49520888  1.0
  F  F5667  1  0.57769469  0.98641807  0.49520888  1.0
  F  F5668  1  0.66860378  0.06334115  0.49520888  1.0
  F  F5669  1  0.66860378  0.14026423  0.49520888  1.0
  F  F5670  1  0.66860378  0.21718730  0.49520888  1.0
  F  F5671  1  0.66860378  0.29411038  0.49520888  1.0
  F  F5672  1  0.66860378  0.37103346  0.49520888  1.0
  F  F5673  1  0.66860378  0.44795654  0.49520888  1.0
  F  F5674  1  0.66860378  0.52487961  0.49520888  1.0
  F  F5675  1  0.66860378  0.60180269  0.49520888  1.0
  F  F5676  1  0.66860378  0.67872577  0.49520888  1.0
  F  F5677  1  0.66860378  0.75564884  0.49520888  1.0
  F  F5678  1  0.66860378  0.83257192  0.49520888  1.0
  F  F5679  1  0.66860378  0.90949500  0.49520888  1.0
  F  F5680  1  0.66860378  0.98641807  0.49520888  1.0
  F  F5681  1  0.75951287  0.06334115  0.49520888  1.0
  F  F5682  1  0.75951287  0.14026423  0.49520888  1.0
  F  F5683  1  0.75951287  0.21718730  0.49520888  1.0
  F  F5684  1  0.75951287  0.29411038  0.49520888  1.0
  F  F5685  1  0.75951287  0.37103346  0.49520888  1.0
  F  F5686  1  0.75951287  0.44795654  0.49520888  1.0
  F  F5687  1  0.75951287  0.52487961  0.49520888  1.0
  F  F5688  1  0.75951287  0.60180269  0.49520888  1.0
  F  F5689  1  0.75951287  0.67872577  0.49520888  1.0
  F  F5690  1  0.75951287  0.75564884  0.49520888  1.0
  F  F5691  1  0.75951287  0.83257192  0.49520888  1.0
  F  F5692  1  0.75951287  0.90949500  0.49520888  1.0
  F  F5693  1  0.75951287  0.98641807  0.49520888  1.0
  F  F5694  1  0.85042196  0.06334115  0.49520888  1.0
  F  F5695  1  0.85042196  0.14026423  0.49520888  1.0
  F  F5696  1  0.85042196  0.21718730  0.49520888  1.0
  F  F5697  1  0.85042196  0.29411038  0.49520888  1.0
  F  F5698  1  0.85042196  0.37103346  0.49520888  1.0
  F  F5699  1  0.85042196  0.44795654  0.49520888  1.0
  F  F5700  1  0.85042196  0.52487961  0.49520888  1.0
  F  F5701  1  0.85042196  0.60180269  0.49520888  1.0
  F  F5702  1  0.85042196  0.67872577  0.49520888  1.0
  F  F5703  1  0.85042196  0.75564884  0.49520888  1.0
  F  F5704  1  0.85042196  0.83257192  0.49520888  1.0
  F  F5705  1  0.85042196  0.90949500  0.49520888  1.0
  F  F5706  1  0.85042196  0.98641807  0.49520888  1.0
  F  F5707  1  0.94133105  0.06334115  0.49520888  1.0
  F  F5708  1  0.94133105  0.14026423  0.49520888  1.0
  F  F5709  1  0.94133105  0.21718730  0.49520888  1.0
  F  F5710  1  0.94133105  0.29411038  0.49520888  1.0
  F  F5711  1  0.94133105  0.37103346  0.49520888  1.0
  F  F5712  1  0.94133105  0.44795654  0.49520888  1.0
  F  F5713  1  0.94133105  0.52487961  0.49520888  1.0
  F  F5714  1  0.94133105  0.60180269  0.49520888  1.0
  F  F5715  1  0.94133105  0.67872577  0.49520888  1.0
  F  F5716  1  0.94133105  0.75564884  0.49520888  1.0
  F  F5717  1  0.94133105  0.83257192  0.49520888  1.0
  F  F5718  1  0.94133105  0.90949500  0.49520888  1.0
  F  F5719  1  0.94133105  0.98641807  0.49520888  1.0
  F  F5720  1  0.06254317  0.01205910  0.56187554  1.0
  F  F5721  1  0.06254317  0.08898218  0.56187554  1.0
  F  F5722  1  0.06254317  0.16590525  0.56187554  1.0
  F  F5723  1  0.06254317  0.24282833  0.56187554  1.0
  F  F5724  1  0.06254317  0.31975141  0.56187554  1.0
  F  F5725  1  0.06254317  0.39667448  0.56187554  1.0
  F  F5726  1  0.06254317  0.47359756  0.56187554  1.0
  F  F5727  1  0.06254317  0.55052064  0.56187554  1.0
  F  F5728  1  0.06254317  0.62744371  0.56187554  1.0
  F  F5729  1  0.06254317  0.70436679  0.56187554  1.0
  F  F5730  1  0.06254317  0.78128987  0.56187554  1.0
  F  F5731  1  0.06254317  0.85821295  0.56187554  1.0
  F  F5732  1  0.06254317  0.93513602  0.56187554  1.0
  F  F5733  1  0.15345226  0.01205910  0.56187554  1.0
  F  F5734  1  0.15345226  0.08898218  0.56187554  1.0
  F  F5735  1  0.15345226  0.16590525  0.56187554  1.0
  F  F5736  1  0.15345226  0.24282833  0.56187554  1.0
  F  F5737  1  0.15345226  0.31975141  0.56187554  1.0
  F  F5738  1  0.15345226  0.39667448  0.56187554  1.0
  F  F5739  1  0.15345226  0.47359756  0.56187554  1.0
  F  F5740  1  0.15345226  0.55052064  0.56187554  1.0
  F  F5741  1  0.15345226  0.62744371  0.56187554  1.0
  F  F5742  1  0.15345226  0.70436679  0.56187554  1.0
  F  F5743  1  0.15345226  0.78128987  0.56187554  1.0
  F  F5744  1  0.15345226  0.85821295  0.56187554  1.0
  F  F5745  1  0.15345226  0.93513602  0.56187554  1.0
  F  F5746  1  0.24436135  0.01205910  0.56187554  1.0
  F  F5747  1  0.24436135  0.08898218  0.56187554  1.0
  F  F5748  1  0.24436135  0.16590525  0.56187554  1.0
  F  F5749  1  0.24436135  0.24282833  0.56187554  1.0
  F  F5750  1  0.24436135  0.31975141  0.56187554  1.0
  F  F5751  1  0.24436135  0.39667448  0.56187554  1.0
  F  F5752  1  0.24436135  0.47359756  0.56187554  1.0
  F  F5753  1  0.24436135  0.55052064  0.56187554  1.0
  F  F5754  1  0.24436135  0.62744371  0.56187554  1.0
  F  F5755  1  0.24436135  0.70436679  0.56187554  1.0
  F  F5756  1  0.24436135  0.78128987  0.56187554  1.0
  F  F5757  1  0.24436135  0.85821295  0.56187554  1.0
  F  F5758  1  0.24436135  0.93513602  0.56187554  1.0
  F  F5759  1  0.33527044  0.01205910  0.56187554  1.0
  F  F5760  1  0.33527044  0.08898218  0.56187554  1.0
  F  F5761  1  0.33527044  0.16590525  0.56187554  1.0
  F  F5762  1  0.33527044  0.24282833  0.56187554  1.0
  F  F5763  1  0.33527044  0.31975141  0.56187554  1.0
  F  F5764  1  0.33527044  0.39667448  0.56187554  1.0
  F  F5765  1  0.33527044  0.47359756  0.56187554  1.0
  F  F5766  1  0.33527044  0.55052064  0.56187554  1.0
  F  F5767  1  0.33527044  0.62744371  0.56187554  1.0
  F  F5768  1  0.33527044  0.70436679  0.56187554  1.0
  F  F5769  1  0.33527044  0.78128987  0.56187554  1.0
  F  F5770  1  0.33527044  0.85821295  0.56187554  1.0
  F  F5771  1  0.33527044  0.93513602  0.56187554  1.0
  F  F5772  1  0.42617954  0.01205910  0.56187554  1.0
  F  F5773  1  0.42617954  0.08898218  0.56187554  1.0
  F  F5774  1  0.42617954  0.16590525  0.56187554  1.0
  F  F5775  1  0.42617954  0.24282833  0.56187554  1.0
  F  F5776  1  0.42617954  0.31975141  0.56187554  1.0
  F  F5777  1  0.42617954  0.39667448  0.56187554  1.0
  F  F5778  1  0.42617954  0.47359756  0.56187554  1.0
  F  F5779  1  0.42617954  0.55052064  0.56187554  1.0
  F  F5780  1  0.42617954  0.62744371  0.56187554  1.0
  F  F5781  1  0.42617954  0.70436679  0.56187554  1.0
  F  F5782  1  0.42617954  0.78128987  0.56187554  1.0
  F  F5783  1  0.42617954  0.85821295  0.56187554  1.0
  F  F5784  1  0.42617954  0.93513602  0.56187554  1.0
  F  F5785  1  0.51708863  0.01205910  0.56187554  1.0
  F  F5786  1  0.51708863  0.08898218  0.56187554  1.0
  F  F5787  1  0.51708863  0.16590525  0.56187554  1.0
  F  F5788  1  0.51708863  0.24282833  0.56187554  1.0
  F  F5789  1  0.51708863  0.31975141  0.56187554  1.0
  F  F5790  1  0.51708863  0.39667448  0.56187554  1.0
  F  F5791  1  0.51708863  0.47359756  0.56187554  1.0
  F  F5792  1  0.51708863  0.55052064  0.56187554  1.0
  F  F5793  1  0.51708863  0.62744371  0.56187554  1.0
  F  F5794  1  0.51708863  0.70436679  0.56187554  1.0
  F  F5795  1  0.51708863  0.78128987  0.56187554  1.0
  F  F5796  1  0.51708863  0.85821295  0.56187554  1.0
  F  F5797  1  0.51708863  0.93513602  0.56187554  1.0
  F  F5798  1  0.60799772  0.01205910  0.56187554  1.0
  F  F5799  1  0.60799772  0.08898218  0.56187554  1.0
  F  F5800  1  0.60799772  0.16590525  0.56187554  1.0
  F  F5801  1  0.60799772  0.24282833  0.56187554  1.0
  F  F5802  1  0.60799772  0.31975141  0.56187554  1.0
  F  F5803  1  0.60799772  0.39667448  0.56187554  1.0
  F  F5804  1  0.60799772  0.47359756  0.56187554  1.0
  F  F5805  1  0.60799772  0.55052064  0.56187554  1.0
  F  F5806  1  0.60799772  0.62744371  0.56187554  1.0
  F  F5807  1  0.60799772  0.70436679  0.56187554  1.0
  F  F5808  1  0.60799772  0.78128987  0.56187554  1.0
  F  F5809  1  0.60799772  0.85821295  0.56187554  1.0
  F  F5810  1  0.60799772  0.93513602  0.56187554  1.0
  F  F5811  1  0.69890681  0.01205910  0.56187554  1.0
  F  F5812  1  0.69890681  0.08898218  0.56187554  1.0
  F  F5813  1  0.69890681  0.16590525  0.56187554  1.0
  F  F5814  1  0.69890681  0.24282833  0.56187554  1.0
  F  F5815  1  0.69890681  0.31975141  0.56187554  1.0
  F  F5816  1  0.69890681  0.39667448  0.56187554  1.0
  F  F5817  1  0.69890681  0.47359756  0.56187554  1.0
  F  F5818  1  0.69890681  0.55052064  0.56187554  1.0
  F  F5819  1  0.69890681  0.62744371  0.56187554  1.0
  F  F5820  1  0.69890681  0.70436679  0.56187554  1.0
  F  F5821  1  0.69890681  0.78128987  0.56187554  1.0
  F  F5822  1  0.69890681  0.85821295  0.56187554  1.0
  F  F5823  1  0.69890681  0.93513602  0.56187554  1.0
  F  F5824  1  0.78981590  0.01205910  0.56187554  1.0
  F  F5825  1  0.78981590  0.08898218  0.56187554  1.0
  F  F5826  1  0.78981590  0.16590525  0.56187554  1.0
  F  F5827  1  0.78981590  0.24282833  0.56187554  1.0
  F  F5828  1  0.78981590  0.31975141  0.56187554  1.0
  F  F5829  1  0.78981590  0.39667448  0.56187554  1.0
  F  F5830  1  0.78981590  0.47359756  0.56187554  1.0
  F  F5831  1  0.78981590  0.55052064  0.56187554  1.0
  F  F5832  1  0.78981590  0.62744371  0.56187554  1.0
  F  F5833  1  0.78981590  0.70436679  0.56187554  1.0
  F  F5834  1  0.78981590  0.78128987  0.56187554  1.0
  F  F5835  1  0.78981590  0.85821295  0.56187554  1.0
  F  F5836  1  0.78981590  0.93513602  0.56187554  1.0
  F  F5837  1  0.88072499  0.01205910  0.56187554  1.0
  F  F5838  1  0.88072499  0.08898218  0.56187554  1.0
  F  F5839  1  0.88072499  0.16590525  0.56187554  1.0
  F  F5840  1  0.88072499  0.24282833  0.56187554  1.0
  F  F5841  1  0.88072499  0.31975141  0.56187554  1.0
  F  F5842  1  0.88072499  0.39667448  0.56187554  1.0
  F  F5843  1  0.88072499  0.47359756  0.56187554  1.0
  F  F5844  1  0.88072499  0.55052064  0.56187554  1.0
  F  F5845  1  0.88072499  0.62744371  0.56187554  1.0
  F  F5846  1  0.88072499  0.70436679  0.56187554  1.0
  F  F5847  1  0.88072499  0.78128987  0.56187554  1.0
  F  F5848  1  0.88072499  0.85821295  0.56187554  1.0
  F  F5849  1  0.88072499  0.93513602  0.56187554  1.0
  F  F5850  1  0.97163408  0.01205910  0.56187554  1.0
  F  F5851  1  0.97163408  0.08898218  0.56187554  1.0
  F  F5852  1  0.97163408  0.16590525  0.56187554  1.0
  F  F5853  1  0.97163408  0.24282833  0.56187554  1.0
  F  F5854  1  0.97163408  0.31975141  0.56187554  1.0
  F  F5855  1  0.97163408  0.39667448  0.56187554  1.0
  F  F5856  1  0.97163408  0.47359756  0.56187554  1.0
  F  F5857  1  0.97163408  0.55052064  0.56187554  1.0
  F  F5858  1  0.97163408  0.62744371  0.56187554  1.0
  F  F5859  1  0.97163408  0.70436679  0.56187554  1.0
  F  F5860  1  0.97163408  0.78128987  0.56187554  1.0
  F  F5861  1  0.97163408  0.85821295  0.56187554  1.0
  F  F5862  1  0.97163408  0.93513602  0.56187554  1.0
  F  F5863  1  0.00193711  0.03770012  0.42854221  1.0
  F  F5864  1  0.00193711  0.11462320  0.42854221  1.0
  F  F5865  1  0.00193711  0.19154628  0.42854221  1.0
  F  F5866  1  0.00193711  0.26846936  0.42854221  1.0
  F  F5867  1  0.00193711  0.34539243  0.42854221  1.0
  F  F5868  1  0.00193711  0.42231551  0.42854221  1.0
  F  F5869  1  0.00193711  0.49923859  0.42854221  1.0
  F  F5870  1  0.00193711  0.57616166  0.42854221  1.0
  F  F5871  1  0.00193711  0.65308474  0.42854221  1.0
  F  F5872  1  0.00193711  0.73000782  0.42854221  1.0
  F  F5873  1  0.00193711  0.80693089  0.42854221  1.0
  F  F5874  1  0.00193711  0.88385397  0.42854221  1.0
  F  F5875  1  0.00193711  0.96077705  0.42854221  1.0
  F  F5876  1  0.09284620  0.03770012  0.42854221  1.0
  F  F5877  1  0.09284620  0.11462320  0.42854221  1.0
  F  F5878  1  0.09284620  0.19154628  0.42854221  1.0
  F  F5879  1  0.09284620  0.26846936  0.42854221  1.0
  F  F5880  1  0.09284620  0.34539243  0.42854221  1.0
  F  F5881  1  0.09284620  0.42231551  0.42854221  1.0
  F  F5882  1  0.09284620  0.49923859  0.42854221  1.0
  F  F5883  1  0.09284620  0.57616166  0.42854221  1.0
  F  F5884  1  0.09284620  0.65308474  0.42854221  1.0
  F  F5885  1  0.09284620  0.73000782  0.42854221  1.0
  F  F5886  1  0.09284620  0.80693089  0.42854221  1.0
  F  F5887  1  0.09284620  0.88385397  0.42854221  1.0
  F  F5888  1  0.09284620  0.96077705  0.42854221  1.0
  F  F5889  1  0.18375529  0.03770012  0.42854221  1.0
  F  F5890  1  0.18375529  0.11462320  0.42854221  1.0
  F  F5891  1  0.18375529  0.19154628  0.42854221  1.0
  F  F5892  1  0.18375529  0.26846936  0.42854221  1.0
  F  F5893  1  0.18375529  0.34539243  0.42854221  1.0
  F  F5894  1  0.18375529  0.42231551  0.42854221  1.0
  F  F5895  1  0.18375529  0.49923859  0.42854221  1.0
  F  F5896  1  0.18375529  0.57616166  0.42854221  1.0
  F  F5897  1  0.18375529  0.65308474  0.42854221  1.0
  F  F5898  1  0.18375529  0.73000782  0.42854221  1.0
  F  F5899  1  0.18375529  0.80693089  0.42854221  1.0
  F  F5900  1  0.18375529  0.88385397  0.42854221  1.0
  F  F5901  1  0.18375529  0.96077705  0.42854221  1.0
  F  F5902  1  0.27466438  0.03770012  0.42854221  1.0
  F  F5903  1  0.27466438  0.11462320  0.42854221  1.0
  F  F5904  1  0.27466438  0.19154628  0.42854221  1.0
  F  F5905  1  0.27466438  0.26846936  0.42854221  1.0
  F  F5906  1  0.27466438  0.34539243  0.42854221  1.0
  F  F5907  1  0.27466438  0.42231551  0.42854221  1.0
  F  F5908  1  0.27466438  0.49923859  0.42854221  1.0
  F  F5909  1  0.27466438  0.57616166  0.42854221  1.0
  F  F5910  1  0.27466438  0.65308474  0.42854221  1.0
  F  F5911  1  0.27466438  0.73000782  0.42854221  1.0
  F  F5912  1  0.27466438  0.80693089  0.42854221  1.0
  F  F5913  1  0.27466438  0.88385397  0.42854221  1.0
  F  F5914  1  0.27466438  0.96077705  0.42854221  1.0
  F  F5915  1  0.36557347  0.03770012  0.42854221  1.0
  F  F5916  1  0.36557347  0.11462320  0.42854221  1.0
  F  F5917  1  0.36557347  0.19154628  0.42854221  1.0
  F  F5918  1  0.36557347  0.26846936  0.42854221  1.0
  F  F5919  1  0.36557347  0.34539243  0.42854221  1.0
  F  F5920  1  0.36557347  0.42231551  0.42854221  1.0
  F  F5921  1  0.36557347  0.49923859  0.42854221  1.0
  F  F5922  1  0.36557347  0.57616166  0.42854221  1.0
  F  F5923  1  0.36557347  0.65308474  0.42854221  1.0
  F  F5924  1  0.36557347  0.73000782  0.42854221  1.0
  F  F5925  1  0.36557347  0.80693089  0.42854221  1.0
  F  F5926  1  0.36557347  0.88385397  0.42854221  1.0
  F  F5927  1  0.36557347  0.96077705  0.42854221  1.0
  F  F5928  1  0.45648257  0.03770012  0.42854221  1.0
  F  F5929  1  0.45648257  0.11462320  0.42854221  1.0
  F  F5930  1  0.45648257  0.19154628  0.42854221  1.0
  F  F5931  1  0.45648257  0.26846936  0.42854221  1.0
  F  F5932  1  0.45648257  0.34539243  0.42854221  1.0
  F  F5933  1  0.45648257  0.42231551  0.42854221  1.0
  F  F5934  1  0.45648257  0.49923859  0.42854221  1.0
  F  F5935  1  0.45648257  0.57616166  0.42854221  1.0
  F  F5936  1  0.45648257  0.65308474  0.42854221  1.0
  F  F5937  1  0.45648257  0.73000782  0.42854221  1.0
  F  F5938  1  0.45648257  0.80693089  0.42854221  1.0
  F  F5939  1  0.45648257  0.88385397  0.42854221  1.0
  F  F5940  1  0.45648257  0.96077705  0.42854221  1.0
  F  F5941  1  0.54739166  0.03770012  0.42854221  1.0
  F  F5942  1  0.54739166  0.11462320  0.42854221  1.0
  F  F5943  1  0.54739166  0.19154628  0.42854221  1.0
  F  F5944  1  0.54739166  0.26846936  0.42854221  1.0
  F  F5945  1  0.54739166  0.34539243  0.42854221  1.0
  F  F5946  1  0.54739166  0.42231551  0.42854221  1.0
  F  F5947  1  0.54739166  0.49923859  0.42854221  1.0
  F  F5948  1  0.54739166  0.57616166  0.42854221  1.0
  F  F5949  1  0.54739166  0.65308474  0.42854221  1.0
  F  F5950  1  0.54739166  0.73000782  0.42854221  1.0
  F  F5951  1  0.54739166  0.80693089  0.42854221  1.0
  F  F5952  1  0.54739166  0.88385397  0.42854221  1.0
  F  F5953  1  0.54739166  0.96077705  0.42854221  1.0
  F  F5954  1  0.63830075  0.03770012  0.42854221  1.0
  F  F5955  1  0.63830075  0.11462320  0.42854221  1.0
  F  F5956  1  0.63830075  0.19154628  0.42854221  1.0
  F  F5957  1  0.63830075  0.26846936  0.42854221  1.0
  F  F5958  1  0.63830075  0.34539243  0.42854221  1.0
  F  F5959  1  0.63830075  0.42231551  0.42854221  1.0
  F  F5960  1  0.63830075  0.49923859  0.42854221  1.0
  F  F5961  1  0.63830075  0.57616166  0.42854221  1.0
  F  F5962  1  0.63830075  0.65308474  0.42854221  1.0
  F  F5963  1  0.63830075  0.73000782  0.42854221  1.0
  F  F5964  1  0.63830075  0.80693089  0.42854221  1.0
  F  F5965  1  0.63830075  0.88385397  0.42854221  1.0
  F  F5966  1  0.63830075  0.96077705  0.42854221  1.0
  F  F5967  1  0.72920984  0.03770012  0.42854221  1.0
  F  F5968  1  0.72920984  0.11462320  0.42854221  1.0
  F  F5969  1  0.72920984  0.19154628  0.42854221  1.0
  F  F5970  1  0.72920984  0.26846936  0.42854221  1.0
  F  F5971  1  0.72920984  0.34539243  0.42854221  1.0
  F  F5972  1  0.72920984  0.42231551  0.42854221  1.0
  F  F5973  1  0.72920984  0.49923859  0.42854221  1.0
  F  F5974  1  0.72920984  0.57616166  0.42854221  1.0
  F  F5975  1  0.72920984  0.65308474  0.42854221  1.0
  F  F5976  1  0.72920984  0.73000782  0.42854221  1.0
  F  F5977  1  0.72920984  0.80693089  0.42854221  1.0
  F  F5978  1  0.72920984  0.88385397  0.42854221  1.0
  F  F5979  1  0.72920984  0.96077705  0.42854221  1.0
  F  F5980  1  0.82011893  0.03770012  0.42854221  1.0
  F  F5981  1  0.82011893  0.11462320  0.42854221  1.0
  F  F5982  1  0.82011893  0.19154628  0.42854221  1.0
  F  F5983  1  0.82011893  0.26846936  0.42854221  1.0
  F  F5984  1  0.82011893  0.34539243  0.42854221  1.0
  F  F5985  1  0.82011893  0.42231551  0.42854221  1.0
  F  F5986  1  0.82011893  0.49923859  0.42854221  1.0
  F  F5987  1  0.82011893  0.57616166  0.42854221  1.0
  F  F5988  1  0.82011893  0.65308474  0.42854221  1.0
  F  F5989  1  0.82011893  0.73000782  0.42854221  1.0
  F  F5990  1  0.82011893  0.80693089  0.42854221  1.0
  F  F5991  1  0.82011893  0.88385397  0.42854221  1.0
  F  F5992  1  0.82011893  0.96077705  0.42854221  1.0
  F  F5993  1  0.91102802  0.03770012  0.42854221  1.0
  F  F5994  1  0.91102802  0.11462320  0.42854221  1.0
  F  F5995  1  0.91102802  0.19154628  0.42854221  1.0
  F  F5996  1  0.91102802  0.26846936  0.42854221  1.0
  F  F5997  1  0.91102802  0.34539243  0.42854221  1.0
  F  F5998  1  0.91102802  0.42231551  0.42854221  1.0
  F  F5999  1  0.91102802  0.49923859  0.42854221  1.0
  F  F6000  1  0.91102802  0.57616166  0.42854221  1.0
  F  F6001  1  0.91102802  0.65308474  0.42854221  1.0
  F  F6002  1  0.91102802  0.73000782  0.42854221  1.0
  F  F6003  1  0.91102802  0.80693089  0.42854221  1.0
  F  F6004  1  0.91102802  0.88385397  0.42854221  1.0
  F  F6005  1  0.91102802  0.96077705  0.42854221  1.0
  F  F6006  1  0.01247164  0.05102528  0.46331554  1.0
  F  F6007  1  0.01247164  0.12794836  0.46331554  1.0
  F  F6008  1  0.01247164  0.20487144  0.46331554  1.0
  F  F6009  1  0.01247164  0.28179451  0.46331554  1.0
  F  F6010  1  0.01247164  0.35871759  0.46331554  1.0
  F  F6011  1  0.01247164  0.43564067  0.46331554  1.0
  F  F6012  1  0.01247164  0.51256374  0.46331554  1.0
  F  F6013  1  0.01247164  0.58948682  0.46331554  1.0
  F  F6014  1  0.01247164  0.66640990  0.46331554  1.0
  F  F6015  1  0.01247164  0.74333297  0.46331554  1.0
  F  F6016  1  0.01247164  0.82025605  0.46331554  1.0
  F  F6017  1  0.01247164  0.89717913  0.46331554  1.0
  F  F6018  1  0.01247164  0.97410221  0.46331554  1.0
  F  F6019  1  0.10338073  0.05102528  0.46331554  1.0
  F  F6020  1  0.10338073  0.12794836  0.46331554  1.0
  F  F6021  1  0.10338073  0.20487144  0.46331554  1.0
  F  F6022  1  0.10338073  0.28179451  0.46331554  1.0
  F  F6023  1  0.10338073  0.35871759  0.46331554  1.0
  F  F6024  1  0.10338073  0.43564067  0.46331554  1.0
  F  F6025  1  0.10338073  0.51256374  0.46331554  1.0
  F  F6026  1  0.10338073  0.58948682  0.46331554  1.0
  F  F6027  1  0.10338073  0.66640990  0.46331554  1.0
  F  F6028  1  0.10338073  0.74333297  0.46331554  1.0
  F  F6029  1  0.10338073  0.82025605  0.46331554  1.0
  F  F6030  1  0.10338073  0.89717913  0.46331554  1.0
  F  F6031  1  0.10338073  0.97410221  0.46331554  1.0
  F  F6032  1  0.19428982  0.05102528  0.46331554  1.0
  F  F6033  1  0.19428982  0.12794836  0.46331554  1.0
  F  F6034  1  0.19428982  0.20487144  0.46331554  1.0
  F  F6035  1  0.19428982  0.28179451  0.46331554  1.0
  F  F6036  1  0.19428982  0.35871759  0.46331554  1.0
  F  F6037  1  0.19428982  0.43564067  0.46331554  1.0
  F  F6038  1  0.19428982  0.51256374  0.46331554  1.0
  F  F6039  1  0.19428982  0.58948682  0.46331554  1.0
  F  F6040  1  0.19428982  0.66640990  0.46331554  1.0
  F  F6041  1  0.19428982  0.74333297  0.46331554  1.0
  F  F6042  1  0.19428982  0.82025605  0.46331554  1.0
  F  F6043  1  0.19428982  0.89717913  0.46331554  1.0
  F  F6044  1  0.19428982  0.97410221  0.46331554  1.0
  F  F6045  1  0.28519891  0.05102528  0.46331554  1.0
  F  F6046  1  0.28519891  0.12794836  0.46331554  1.0
  F  F6047  1  0.28519891  0.20487144  0.46331554  1.0
  F  F6048  1  0.28519891  0.28179451  0.46331554  1.0
  F  F6049  1  0.28519891  0.35871759  0.46331554  1.0
  F  F6050  1  0.28519891  0.43564067  0.46331554  1.0
  F  F6051  1  0.28519891  0.51256374  0.46331554  1.0
  F  F6052  1  0.28519891  0.58948682  0.46331554  1.0
  F  F6053  1  0.28519891  0.66640990  0.46331554  1.0
  F  F6054  1  0.28519891  0.74333297  0.46331554  1.0
  F  F6055  1  0.28519891  0.82025605  0.46331554  1.0
  F  F6056  1  0.28519891  0.89717913  0.46331554  1.0
  F  F6057  1  0.28519891  0.97410221  0.46331554  1.0
  F  F6058  1  0.37610800  0.05102528  0.46331554  1.0
  F  F6059  1  0.37610800  0.12794836  0.46331554  1.0
  F  F6060  1  0.37610800  0.20487144  0.46331554  1.0
  F  F6061  1  0.37610800  0.28179451  0.46331554  1.0
  F  F6062  1  0.37610800  0.35871759  0.46331554  1.0
  F  F6063  1  0.37610800  0.43564067  0.46331554  1.0
  F  F6064  1  0.37610800  0.51256374  0.46331554  1.0
  F  F6065  1  0.37610800  0.58948682  0.46331554  1.0
  F  F6066  1  0.37610800  0.66640990  0.46331554  1.0
  F  F6067  1  0.37610800  0.74333297  0.46331554  1.0
  F  F6068  1  0.37610800  0.82025605  0.46331554  1.0
  F  F6069  1  0.37610800  0.89717913  0.46331554  1.0
  F  F6070  1  0.37610800  0.97410221  0.46331554  1.0
  F  F6071  1  0.46701709  0.05102528  0.46331554  1.0
  F  F6072  1  0.46701709  0.12794836  0.46331554  1.0
  F  F6073  1  0.46701709  0.20487144  0.46331554  1.0
  F  F6074  1  0.46701709  0.28179451  0.46331554  1.0
  F  F6075  1  0.46701709  0.35871759  0.46331554  1.0
  F  F6076  1  0.46701709  0.43564067  0.46331554  1.0
  F  F6077  1  0.46701709  0.51256374  0.46331554  1.0
  F  F6078  1  0.46701709  0.58948682  0.46331554  1.0
  F  F6079  1  0.46701709  0.66640990  0.46331554  1.0
  F  F6080  1  0.46701709  0.74333297  0.46331554  1.0
  F  F6081  1  0.46701709  0.82025605  0.46331554  1.0
  F  F6082  1  0.46701709  0.89717913  0.46331554  1.0
  F  F6083  1  0.46701709  0.97410221  0.46331554  1.0
  F  F6084  1  0.55792618  0.05102528  0.46331554  1.0
  F  F6085  1  0.55792618  0.12794836  0.46331554  1.0
  F  F6086  1  0.55792618  0.20487144  0.46331554  1.0
  F  F6087  1  0.55792618  0.28179451  0.46331554  1.0
  F  F6088  1  0.55792618  0.35871759  0.46331554  1.0
  F  F6089  1  0.55792618  0.43564067  0.46331554  1.0
  F  F6090  1  0.55792618  0.51256374  0.46331554  1.0
  F  F6091  1  0.55792618  0.58948682  0.46331554  1.0
  F  F6092  1  0.55792618  0.66640990  0.46331554  1.0
  F  F6093  1  0.55792618  0.74333297  0.46331554  1.0
  F  F6094  1  0.55792618  0.82025605  0.46331554  1.0
  F  F6095  1  0.55792618  0.89717913  0.46331554  1.0
  F  F6096  1  0.55792618  0.97410221  0.46331554  1.0
  F  F6097  1  0.64883527  0.05102528  0.46331554  1.0
  F  F6098  1  0.64883527  0.12794836  0.46331554  1.0
  F  F6099  1  0.64883527  0.20487144  0.46331554  1.0
  F  F6100  1  0.64883527  0.28179451  0.46331554  1.0
  F  F6101  1  0.64883527  0.35871759  0.46331554  1.0
  F  F6102  1  0.64883527  0.43564067  0.46331554  1.0
  F  F6103  1  0.64883527  0.51256374  0.46331554  1.0
  F  F6104  1  0.64883527  0.58948682  0.46331554  1.0
  F  F6105  1  0.64883527  0.66640990  0.46331554  1.0
  F  F6106  1  0.64883527  0.74333297  0.46331554  1.0
  F  F6107  1  0.64883527  0.82025605  0.46331554  1.0
  F  F6108  1  0.64883527  0.89717913  0.46331554  1.0
  F  F6109  1  0.64883527  0.97410221  0.46331554  1.0
  F  F6110  1  0.73974436  0.05102528  0.46331554  1.0
  F  F6111  1  0.73974436  0.12794836  0.46331554  1.0
  F  F6112  1  0.73974436  0.20487144  0.46331554  1.0
  F  F6113  1  0.73974436  0.28179451  0.46331554  1.0
  F  F6114  1  0.73974436  0.35871759  0.46331554  1.0
  F  F6115  1  0.73974436  0.43564067  0.46331554  1.0
  F  F6116  1  0.73974436  0.51256374  0.46331554  1.0
  F  F6117  1  0.73974436  0.58948682  0.46331554  1.0
  F  F6118  1  0.73974436  0.66640990  0.46331554  1.0
  F  F6119  1  0.73974436  0.74333297  0.46331554  1.0
  F  F6120  1  0.73974436  0.82025605  0.46331554  1.0
  F  F6121  1  0.73974436  0.89717913  0.46331554  1.0
  F  F6122  1  0.73974436  0.97410221  0.46331554  1.0
  F  F6123  1  0.83065346  0.05102528  0.46331554  1.0
  F  F6124  1  0.83065346  0.12794836  0.46331554  1.0
  F  F6125  1  0.83065346  0.20487144  0.46331554  1.0
  F  F6126  1  0.83065346  0.28179451  0.46331554  1.0
  F  F6127  1  0.83065346  0.35871759  0.46331554  1.0
  F  F6128  1  0.83065346  0.43564067  0.46331554  1.0
  F  F6129  1  0.83065346  0.51256374  0.46331554  1.0
  F  F6130  1  0.83065346  0.58948682  0.46331554  1.0
  F  F6131  1  0.83065346  0.66640990  0.46331554  1.0
  F  F6132  1  0.83065346  0.74333297  0.46331554  1.0
  F  F6133  1  0.83065346  0.82025605  0.46331554  1.0
  F  F6134  1  0.83065346  0.89717913  0.46331554  1.0
  F  F6135  1  0.83065346  0.97410221  0.46331554  1.0
  F  F6136  1  0.92156255  0.05102528  0.46331554  1.0
  F  F6137  1  0.92156255  0.12794836  0.46331554  1.0
  F  F6138  1  0.92156255  0.20487144  0.46331554  1.0
  F  F6139  1  0.92156255  0.28179451  0.46331554  1.0
  F  F6140  1  0.92156255  0.35871759  0.46331554  1.0
  F  F6141  1  0.92156255  0.43564067  0.46331554  1.0
  F  F6142  1  0.92156255  0.51256374  0.46331554  1.0
  F  F6143  1  0.92156255  0.58948682  0.46331554  1.0
  F  F6144  1  0.92156255  0.66640990  0.46331554  1.0
  F  F6145  1  0.92156255  0.74333297  0.46331554  1.0
  F  F6146  1  0.92156255  0.82025605  0.46331554  1.0
  F  F6147  1  0.92156255  0.89717913  0.46331554  1.0
  F  F6148  1  0.92156255  0.97410221  0.46331554  1.0
  F  F6149  1  0.04277467  0.07666631  0.52998221  1.0
  F  F6150  1  0.04277467  0.15358939  0.52998221  1.0
  F  F6151  1  0.04277467  0.23051246  0.52998221  1.0
  F  F6152  1  0.04277467  0.30743554  0.52998221  1.0
  F  F6153  1  0.04277467  0.38435862  0.52998221  1.0
  F  F6154  1  0.04277467  0.46128169  0.52998221  1.0
  F  F6155  1  0.04277467  0.53820477  0.52998221  1.0
  F  F6156  1  0.04277467  0.61512785  0.52998221  1.0
  F  F6157  1  0.04277467  0.69205092  0.52998221  1.0
  F  F6158  1  0.04277467  0.76897400  0.52998221  1.0
  F  F6159  1  0.04277467  0.84589708  0.52998221  1.0
  F  F6160  1  0.04277467  0.92282015  0.52998221  1.0
  F  F6161  1  0.04277467  0.99974323  0.52998221  1.0
  F  F6162  1  0.13368376  0.07666631  0.52998221  1.0
  F  F6163  1  0.13368376  0.15358939  0.52998221  1.0
  F  F6164  1  0.13368376  0.23051246  0.52998221  1.0
  F  F6165  1  0.13368376  0.30743554  0.52998221  1.0
  F  F6166  1  0.13368376  0.38435862  0.52998221  1.0
  F  F6167  1  0.13368376  0.46128169  0.52998221  1.0
  F  F6168  1  0.13368376  0.53820477  0.52998221  1.0
  F  F6169  1  0.13368376  0.61512785  0.52998221  1.0
  F  F6170  1  0.13368376  0.69205092  0.52998221  1.0
  F  F6171  1  0.13368376  0.76897400  0.52998221  1.0
  F  F6172  1  0.13368376  0.84589708  0.52998221  1.0
  F  F6173  1  0.13368376  0.92282015  0.52998221  1.0
  F  F6174  1  0.13368376  0.99974323  0.52998221  1.0
  F  F6175  1  0.22459285  0.07666631  0.52998221  1.0
  F  F6176  1  0.22459285  0.15358939  0.52998221  1.0
  F  F6177  1  0.22459285  0.23051246  0.52998221  1.0
  F  F6178  1  0.22459285  0.30743554  0.52998221  1.0
  F  F6179  1  0.22459285  0.38435862  0.52998221  1.0
  F  F6180  1  0.22459285  0.46128169  0.52998221  1.0
  F  F6181  1  0.22459285  0.53820477  0.52998221  1.0
  F  F6182  1  0.22459285  0.61512785  0.52998221  1.0
  F  F6183  1  0.22459285  0.69205092  0.52998221  1.0
  F  F6184  1  0.22459285  0.76897400  0.52998221  1.0
  F  F6185  1  0.22459285  0.84589708  0.52998221  1.0
  F  F6186  1  0.22459285  0.92282015  0.52998221  1.0
  F  F6187  1  0.22459285  0.99974323  0.52998221  1.0
  F  F6188  1  0.31550194  0.07666631  0.52998221  1.0
  F  F6189  1  0.31550194  0.15358939  0.52998221  1.0
  F  F6190  1  0.31550194  0.23051246  0.52998221  1.0
  F  F6191  1  0.31550194  0.30743554  0.52998221  1.0
  F  F6192  1  0.31550194  0.38435862  0.52998221  1.0
  F  F6193  1  0.31550194  0.46128169  0.52998221  1.0
  F  F6194  1  0.31550194  0.53820477  0.52998221  1.0
  F  F6195  1  0.31550194  0.61512785  0.52998221  1.0
  F  F6196  1  0.31550194  0.69205092  0.52998221  1.0
  F  F6197  1  0.31550194  0.76897400  0.52998221  1.0
  F  F6198  1  0.31550194  0.84589708  0.52998221  1.0
  F  F6199  1  0.31550194  0.92282015  0.52998221  1.0
  F  F6200  1  0.31550194  0.99974323  0.52998221  1.0
  F  F6201  1  0.40641103  0.07666631  0.52998221  1.0
  F  F6202  1  0.40641103  0.15358939  0.52998221  1.0
  F  F6203  1  0.40641103  0.23051246  0.52998221  1.0
  F  F6204  1  0.40641103  0.30743554  0.52998221  1.0
  F  F6205  1  0.40641103  0.38435862  0.52998221  1.0
  F  F6206  1  0.40641103  0.46128169  0.52998221  1.0
  F  F6207  1  0.40641103  0.53820477  0.52998221  1.0
  F  F6208  1  0.40641103  0.61512785  0.52998221  1.0
  F  F6209  1  0.40641103  0.69205092  0.52998221  1.0
  F  F6210  1  0.40641103  0.76897400  0.52998221  1.0
  F  F6211  1  0.40641103  0.84589708  0.52998221  1.0
  F  F6212  1  0.40641103  0.92282015  0.52998221  1.0
  F  F6213  1  0.40641103  0.99974323  0.52998221  1.0
  F  F6214  1  0.49732012  0.07666631  0.52998221  1.0
  F  F6215  1  0.49732012  0.15358939  0.52998221  1.0
  F  F6216  1  0.49732012  0.23051246  0.52998221  1.0
  F  F6217  1  0.49732012  0.30743554  0.52998221  1.0
  F  F6218  1  0.49732012  0.38435862  0.52998221  1.0
  F  F6219  1  0.49732012  0.46128169  0.52998221  1.0
  F  F6220  1  0.49732012  0.53820477  0.52998221  1.0
  F  F6221  1  0.49732012  0.61512785  0.52998221  1.0
  F  F6222  1  0.49732012  0.69205092  0.52998221  1.0
  F  F6223  1  0.49732012  0.76897400  0.52998221  1.0
  F  F6224  1  0.49732012  0.84589708  0.52998221  1.0
  F  F6225  1  0.49732012  0.92282015  0.52998221  1.0
  F  F6226  1  0.49732012  0.99974323  0.52998221  1.0
  F  F6227  1  0.58822921  0.07666631  0.52998221  1.0
  F  F6228  1  0.58822921  0.15358939  0.52998221  1.0
  F  F6229  1  0.58822921  0.23051246  0.52998221  1.0
  F  F6230  1  0.58822921  0.30743554  0.52998221  1.0
  F  F6231  1  0.58822921  0.38435862  0.52998221  1.0
  F  F6232  1  0.58822921  0.46128169  0.52998221  1.0
  F  F6233  1  0.58822921  0.53820477  0.52998221  1.0
  F  F6234  1  0.58822921  0.61512785  0.52998221  1.0
  F  F6235  1  0.58822921  0.69205092  0.52998221  1.0
  F  F6236  1  0.58822921  0.76897400  0.52998221  1.0
  F  F6237  1  0.58822921  0.84589708  0.52998221  1.0
  F  F6238  1  0.58822921  0.92282015  0.52998221  1.0
  F  F6239  1  0.58822921  0.99974323  0.52998221  1.0
  F  F6240  1  0.67913830  0.07666631  0.52998221  1.0
  F  F6241  1  0.67913830  0.15358939  0.52998221  1.0
  F  F6242  1  0.67913830  0.23051246  0.52998221  1.0
  F  F6243  1  0.67913830  0.30743554  0.52998221  1.0
  F  F6244  1  0.67913830  0.38435862  0.52998221  1.0
  F  F6245  1  0.67913830  0.46128169  0.52998221  1.0
  F  F6246  1  0.67913830  0.53820477  0.52998221  1.0
  F  F6247  1  0.67913830  0.61512785  0.52998221  1.0
  F  F6248  1  0.67913830  0.69205092  0.52998221  1.0
  F  F6249  1  0.67913830  0.76897400  0.52998221  1.0
  F  F6250  1  0.67913830  0.84589708  0.52998221  1.0
  F  F6251  1  0.67913830  0.92282015  0.52998221  1.0
  F  F6252  1  0.67913830  0.99974323  0.52998221  1.0
  F  F6253  1  0.77004740  0.07666631  0.52998221  1.0
  F  F6254  1  0.77004740  0.15358939  0.52998221  1.0
  F  F6255  1  0.77004740  0.23051246  0.52998221  1.0
  F  F6256  1  0.77004740  0.30743554  0.52998221  1.0
  F  F6257  1  0.77004740  0.38435862  0.52998221  1.0
  F  F6258  1  0.77004740  0.46128169  0.52998221  1.0
  F  F6259  1  0.77004740  0.53820477  0.52998221  1.0
  F  F6260  1  0.77004740  0.61512785  0.52998221  1.0
  F  F6261  1  0.77004740  0.69205092  0.52998221  1.0
  F  F6262  1  0.77004740  0.76897400  0.52998221  1.0
  F  F6263  1  0.77004740  0.84589708  0.52998221  1.0
  F  F6264  1  0.77004740  0.92282015  0.52998221  1.0
  F  F6265  1  0.77004740  0.99974323  0.52998221  1.0
  F  F6266  1  0.86095649  0.07666631  0.52998221  1.0
  F  F6267  1  0.86095649  0.15358939  0.52998221  1.0
  F  F6268  1  0.86095649  0.23051246  0.52998221  1.0
  F  F6269  1  0.86095649  0.30743554  0.52998221  1.0
  F  F6270  1  0.86095649  0.38435862  0.52998221  1.0
  F  F6271  1  0.86095649  0.46128169  0.52998221  1.0
  F  F6272  1  0.86095649  0.53820477  0.52998221  1.0
  F  F6273  1  0.86095649  0.61512785  0.52998221  1.0
  F  F6274  1  0.86095649  0.69205092  0.52998221  1.0
  F  F6275  1  0.86095649  0.76897400  0.52998221  1.0
  F  F6276  1  0.86095649  0.84589708  0.52998221  1.0
  F  F6277  1  0.86095649  0.92282015  0.52998221  1.0
  F  F6278  1  0.86095649  0.99974323  0.52998221  1.0
  F  F6279  1  0.95186558  0.07666631  0.52998221  1.0
  F  F6280  1  0.95186558  0.15358939  0.52998221  1.0
  F  F6281  1  0.95186558  0.23051246  0.52998221  1.0
  F  F6282  1  0.95186558  0.30743554  0.52998221  1.0
  F  F6283  1  0.95186558  0.38435862  0.52998221  1.0
  F  F6284  1  0.95186558  0.46128169  0.52998221  1.0
  F  F6285  1  0.95186558  0.53820477  0.52998221  1.0
  F  F6286  1  0.95186558  0.61512785  0.52998221  1.0
  F  F6287  1  0.95186558  0.69205092  0.52998221  1.0
  F  F6288  1  0.95186558  0.76897400  0.52998221  1.0
  F  F6289  1  0.95186558  0.84589708  0.52998221  1.0
  F  F6290  1  0.95186558  0.92282015  0.52998221  1.0
  F  F6291  1  0.95186558  0.99974323  0.52998221  1.0
  F  F6292  1  0.07307770  0.02538426  0.59664887  1.0
  F  F6293  1  0.07307770  0.10230733  0.59664887  1.0
  F  F6294  1  0.07307770  0.17923041  0.59664887  1.0
  F  F6295  1  0.07307770  0.25615349  0.59664887  1.0
  F  F6296  1  0.07307770  0.33307656  0.59664887  1.0
  F  F6297  1  0.07307770  0.40999964  0.59664887  1.0
  F  F6298  1  0.07307770  0.48692272  0.59664887  1.0
  F  F6299  1  0.07307770  0.56384580  0.59664887  1.0
  F  F6300  1  0.07307770  0.64076887  0.59664887  1.0
  F  F6301  1  0.07307770  0.71769195  0.59664887  1.0
  F  F6302  1  0.07307770  0.79461503  0.59664887  1.0
  F  F6303  1  0.07307770  0.87153810  0.59664887  1.0
  F  F6304  1  0.07307770  0.94846118  0.59664887  1.0
  F  F6305  1  0.16398679  0.02538426  0.59664887  1.0
  F  F6306  1  0.16398679  0.10230733  0.59664887  1.0
  F  F6307  1  0.16398679  0.17923041  0.59664887  1.0
  F  F6308  1  0.16398679  0.25615349  0.59664887  1.0
  F  F6309  1  0.16398679  0.33307656  0.59664887  1.0
  F  F6310  1  0.16398679  0.40999964  0.59664887  1.0
  F  F6311  1  0.16398679  0.48692272  0.59664887  1.0
  F  F6312  1  0.16398679  0.56384580  0.59664887  1.0
  F  F6313  1  0.16398679  0.64076887  0.59664887  1.0
  F  F6314  1  0.16398679  0.71769195  0.59664887  1.0
  F  F6315  1  0.16398679  0.79461503  0.59664887  1.0
  F  F6316  1  0.16398679  0.87153810  0.59664887  1.0
  F  F6317  1  0.16398679  0.94846118  0.59664887  1.0
  F  F6318  1  0.25489588  0.02538426  0.59664887  1.0
  F  F6319  1  0.25489588  0.10230733  0.59664887  1.0
  F  F6320  1  0.25489588  0.17923041  0.59664887  1.0
  F  F6321  1  0.25489588  0.25615349  0.59664887  1.0
  F  F6322  1  0.25489588  0.33307656  0.59664887  1.0
  F  F6323  1  0.25489588  0.40999964  0.59664887  1.0
  F  F6324  1  0.25489588  0.48692272  0.59664887  1.0
  F  F6325  1  0.25489588  0.56384580  0.59664887  1.0
  F  F6326  1  0.25489588  0.64076887  0.59664887  1.0
  F  F6327  1  0.25489588  0.71769195  0.59664887  1.0
  F  F6328  1  0.25489588  0.79461503  0.59664887  1.0
  F  F6329  1  0.25489588  0.87153810  0.59664887  1.0
  F  F6330  1  0.25489588  0.94846118  0.59664887  1.0
  F  F6331  1  0.34580497  0.02538426  0.59664887  1.0
  F  F6332  1  0.34580497  0.10230733  0.59664887  1.0
  F  F6333  1  0.34580497  0.17923041  0.59664887  1.0
  F  F6334  1  0.34580497  0.25615349  0.59664887  1.0
  F  F6335  1  0.34580497  0.33307656  0.59664887  1.0
  F  F6336  1  0.34580497  0.40999964  0.59664887  1.0
  F  F6337  1  0.34580497  0.48692272  0.59664887  1.0
  F  F6338  1  0.34580497  0.56384580  0.59664887  1.0
  F  F6339  1  0.34580497  0.64076887  0.59664887  1.0
  F  F6340  1  0.34580497  0.71769195  0.59664887  1.0
  F  F6341  1  0.34580497  0.79461503  0.59664887  1.0
  F  F6342  1  0.34580497  0.87153810  0.59664887  1.0
  F  F6343  1  0.34580497  0.94846118  0.59664887  1.0
  F  F6344  1  0.43671406  0.02538426  0.59664887  1.0
  F  F6345  1  0.43671406  0.10230733  0.59664887  1.0
  F  F6346  1  0.43671406  0.17923041  0.59664887  1.0
  F  F6347  1  0.43671406  0.25615349  0.59664887  1.0
  F  F6348  1  0.43671406  0.33307656  0.59664887  1.0
  F  F6349  1  0.43671406  0.40999964  0.59664887  1.0
  F  F6350  1  0.43671406  0.48692272  0.59664887  1.0
  F  F6351  1  0.43671406  0.56384580  0.59664887  1.0
  F  F6352  1  0.43671406  0.64076887  0.59664887  1.0
  F  F6353  1  0.43671406  0.71769195  0.59664887  1.0
  F  F6354  1  0.43671406  0.79461503  0.59664887  1.0
  F  F6355  1  0.43671406  0.87153810  0.59664887  1.0
  F  F6356  1  0.43671406  0.94846118  0.59664887  1.0
  F  F6357  1  0.52762315  0.02538426  0.59664887  1.0
  F  F6358  1  0.52762315  0.10230733  0.59664887  1.0
  F  F6359  1  0.52762315  0.17923041  0.59664887  1.0
  F  F6360  1  0.52762315  0.25615349  0.59664887  1.0
  F  F6361  1  0.52762315  0.33307656  0.59664887  1.0
  F  F6362  1  0.52762315  0.40999964  0.59664887  1.0
  F  F6363  1  0.52762315  0.48692272  0.59664887  1.0
  F  F6364  1  0.52762315  0.56384580  0.59664887  1.0
  F  F6365  1  0.52762315  0.64076887  0.59664887  1.0
  F  F6366  1  0.52762315  0.71769195  0.59664887  1.0
  F  F6367  1  0.52762315  0.79461503  0.59664887  1.0
  F  F6368  1  0.52762315  0.87153810  0.59664887  1.0
  F  F6369  1  0.52762315  0.94846118  0.59664887  1.0
  F  F6370  1  0.61853224  0.02538426  0.59664887  1.0
  F  F6371  1  0.61853224  0.10230733  0.59664887  1.0
  F  F6372  1  0.61853224  0.17923041  0.59664887  1.0
  F  F6373  1  0.61853224  0.25615349  0.59664887  1.0
  F  F6374  1  0.61853224  0.33307656  0.59664887  1.0
  F  F6375  1  0.61853224  0.40999964  0.59664887  1.0
  F  F6376  1  0.61853224  0.48692272  0.59664887  1.0
  F  F6377  1  0.61853224  0.56384580  0.59664887  1.0
  F  F6378  1  0.61853224  0.64076887  0.59664887  1.0
  F  F6379  1  0.61853224  0.71769195  0.59664887  1.0
  F  F6380  1  0.61853224  0.79461503  0.59664887  1.0
  F  F6381  1  0.61853224  0.87153810  0.59664887  1.0
  F  F6382  1  0.61853224  0.94846118  0.59664887  1.0
  F  F6383  1  0.70944133  0.02538426  0.59664887  1.0
  F  F6384  1  0.70944133  0.10230733  0.59664887  1.0
  F  F6385  1  0.70944133  0.17923041  0.59664887  1.0
  F  F6386  1  0.70944133  0.25615349  0.59664887  1.0
  F  F6387  1  0.70944133  0.33307656  0.59664887  1.0
  F  F6388  1  0.70944133  0.40999964  0.59664887  1.0
  F  F6389  1  0.70944133  0.48692272  0.59664887  1.0
  F  F6390  1  0.70944133  0.56384580  0.59664887  1.0
  F  F6391  1  0.70944133  0.64076887  0.59664887  1.0
  F  F6392  1  0.70944133  0.71769195  0.59664887  1.0
  F  F6393  1  0.70944133  0.79461503  0.59664887  1.0
  F  F6394  1  0.70944133  0.87153810  0.59664887  1.0
  F  F6395  1  0.70944133  0.94846118  0.59664887  1.0
  F  F6396  1  0.80035043  0.02538426  0.59664887  1.0
  F  F6397  1  0.80035043  0.10230733  0.59664887  1.0
  F  F6398  1  0.80035043  0.17923041  0.59664887  1.0
  F  F6399  1  0.80035043  0.25615349  0.59664887  1.0
  F  F6400  1  0.80035043  0.33307656  0.59664887  1.0
  F  F6401  1  0.80035043  0.40999964  0.59664887  1.0
  F  F6402  1  0.80035043  0.48692272  0.59664887  1.0
  F  F6403  1  0.80035043  0.56384580  0.59664887  1.0
  F  F6404  1  0.80035043  0.64076887  0.59664887  1.0
  F  F6405  1  0.80035043  0.71769195  0.59664887  1.0
  F  F6406  1  0.80035043  0.79461503  0.59664887  1.0
  F  F6407  1  0.80035043  0.87153810  0.59664887  1.0
  F  F6408  1  0.80035043  0.94846118  0.59664887  1.0
  F  F6409  1  0.89125952  0.02538426  0.59664887  1.0
  F  F6410  1  0.89125952  0.10230733  0.59664887  1.0
  F  F6411  1  0.89125952  0.17923041  0.59664887  1.0
  F  F6412  1  0.89125952  0.25615349  0.59664887  1.0
  F  F6413  1  0.89125952  0.33307656  0.59664887  1.0
  F  F6414  1  0.89125952  0.40999964  0.59664887  1.0
  F  F6415  1  0.89125952  0.48692272  0.59664887  1.0
  F  F6416  1  0.89125952  0.56384580  0.59664887  1.0
  F  F6417  1  0.89125952  0.64076887  0.59664887  1.0
  F  F6418  1  0.89125952  0.71769195  0.59664887  1.0
  F  F6419  1  0.89125952  0.79461503  0.59664887  1.0
  F  F6420  1  0.89125952  0.87153810  0.59664887  1.0
  F  F6421  1  0.89125952  0.94846118  0.59664887  1.0
  F  F6422  1  0.98216861  0.02538426  0.59664887  1.0
  F  F6423  1  0.98216861  0.10230733  0.59664887  1.0
  F  F6424  1  0.98216861  0.17923041  0.59664887  1.0
  F  F6425  1  0.98216861  0.25615349  0.59664887  1.0
  F  F6426  1  0.98216861  0.33307656  0.59664887  1.0
  F  F6427  1  0.98216861  0.40999964  0.59664887  1.0
  F  F6428  1  0.98216861  0.48692272  0.59664887  1.0
  F  F6429  1  0.98216861  0.56384580  0.59664887  1.0
  F  F6430  1  0.98216861  0.64076887  0.59664887  1.0
  F  F6431  1  0.98216861  0.71769195  0.59664887  1.0
  F  F6432  1  0.98216861  0.79461503  0.59664887  1.0
  F  F6433  1  0.98216861  0.87153810  0.59664887  1.0
  F  F6434  1  0.98216861  0.94846118  0.59664887  1.0
  F  F6435  1  0.01394620  0.01183601  0.46194826  1.0
  F  F6436  1  0.01394620  0.08875909  0.46194826  1.0
  F  F6437  1  0.01394620  0.16568216  0.46194826  1.0
  F  F6438  1  0.01394620  0.24260524  0.46194826  1.0
  F  F6439  1  0.01394620  0.31952832  0.46194826  1.0
  F  F6440  1  0.01394620  0.39645139  0.46194826  1.0
  F  F6441  1  0.01394620  0.47337447  0.46194826  1.0
  F  F6442  1  0.01394620  0.55029755  0.46194826  1.0
  F  F6443  1  0.01394620  0.62722062  0.46194826  1.0
  F  F6444  1  0.01394620  0.70414370  0.46194826  1.0
  F  F6445  1  0.01394620  0.78106678  0.46194826  1.0
  F  F6446  1  0.01394620  0.85798986  0.46194826  1.0
  F  F6447  1  0.01394620  0.93491293  0.46194826  1.0
  F  F6448  1  0.10485529  0.01183601  0.46194826  1.0
  F  F6449  1  0.10485529  0.08875909  0.46194826  1.0
  F  F6450  1  0.10485529  0.16568216  0.46194826  1.0
  F  F6451  1  0.10485529  0.24260524  0.46194826  1.0
  F  F6452  1  0.10485529  0.31952832  0.46194826  1.0
  F  F6453  1  0.10485529  0.39645139  0.46194826  1.0
  F  F6454  1  0.10485529  0.47337447  0.46194826  1.0
  F  F6455  1  0.10485529  0.55029755  0.46194826  1.0
  F  F6456  1  0.10485529  0.62722062  0.46194826  1.0
  F  F6457  1  0.10485529  0.70414370  0.46194826  1.0
  F  F6458  1  0.10485529  0.78106678  0.46194826  1.0
  F  F6459  1  0.10485529  0.85798986  0.46194826  1.0
  F  F6460  1  0.10485529  0.93491293  0.46194826  1.0
  F  F6461  1  0.19576438  0.01183601  0.46194826  1.0
  F  F6462  1  0.19576438  0.08875909  0.46194826  1.0
  F  F6463  1  0.19576438  0.16568216  0.46194826  1.0
  F  F6464  1  0.19576438  0.24260524  0.46194826  1.0
  F  F6465  1  0.19576438  0.31952832  0.46194826  1.0
  F  F6466  1  0.19576438  0.39645139  0.46194826  1.0
  F  F6467  1  0.19576438  0.47337447  0.46194826  1.0
  F  F6468  1  0.19576438  0.55029755  0.46194826  1.0
  F  F6469  1  0.19576438  0.62722062  0.46194826  1.0
  F  F6470  1  0.19576438  0.70414370  0.46194826  1.0
  F  F6471  1  0.19576438  0.78106678  0.46194826  1.0
  F  F6472  1  0.19576438  0.85798986  0.46194826  1.0
  F  F6473  1  0.19576438  0.93491293  0.46194826  1.0
  F  F6474  1  0.28667347  0.01183601  0.46194826  1.0
  F  F6475  1  0.28667347  0.08875909  0.46194826  1.0
  F  F6476  1  0.28667347  0.16568216  0.46194826  1.0
  F  F6477  1  0.28667347  0.24260524  0.46194826  1.0
  F  F6478  1  0.28667347  0.31952832  0.46194826  1.0
  F  F6479  1  0.28667347  0.39645139  0.46194826  1.0
  F  F6480  1  0.28667347  0.47337447  0.46194826  1.0
  F  F6481  1  0.28667347  0.55029755  0.46194826  1.0
  F  F6482  1  0.28667347  0.62722062  0.46194826  1.0
  F  F6483  1  0.28667347  0.70414370  0.46194826  1.0
  F  F6484  1  0.28667347  0.78106678  0.46194826  1.0
  F  F6485  1  0.28667347  0.85798986  0.46194826  1.0
  F  F6486  1  0.28667347  0.93491293  0.46194826  1.0
  F  F6487  1  0.37758256  0.01183601  0.46194826  1.0
  F  F6488  1  0.37758256  0.08875909  0.46194826  1.0
  F  F6489  1  0.37758256  0.16568216  0.46194826  1.0
  F  F6490  1  0.37758256  0.24260524  0.46194826  1.0
  F  F6491  1  0.37758256  0.31952832  0.46194826  1.0
  F  F6492  1  0.37758256  0.39645139  0.46194826  1.0
  F  F6493  1  0.37758256  0.47337447  0.46194826  1.0
  F  F6494  1  0.37758256  0.55029755  0.46194826  1.0
  F  F6495  1  0.37758256  0.62722062  0.46194826  1.0
  F  F6496  1  0.37758256  0.70414370  0.46194826  1.0
  F  F6497  1  0.37758256  0.78106678  0.46194826  1.0
  F  F6498  1  0.37758256  0.85798986  0.46194826  1.0
  F  F6499  1  0.37758256  0.93491293  0.46194826  1.0
  F  F6500  1  0.46849166  0.01183601  0.46194826  1.0
  F  F6501  1  0.46849166  0.08875909  0.46194826  1.0
  F  F6502  1  0.46849166  0.16568216  0.46194826  1.0
  F  F6503  1  0.46849166  0.24260524  0.46194826  1.0
  F  F6504  1  0.46849166  0.31952832  0.46194826  1.0
  F  F6505  1  0.46849166  0.39645139  0.46194826  1.0
  F  F6506  1  0.46849166  0.47337447  0.46194826  1.0
  F  F6507  1  0.46849166  0.55029755  0.46194826  1.0
  F  F6508  1  0.46849166  0.62722062  0.46194826  1.0
  F  F6509  1  0.46849166  0.70414370  0.46194826  1.0
  F  F6510  1  0.46849166  0.78106678  0.46194826  1.0
  F  F6511  1  0.46849166  0.85798986  0.46194826  1.0
  F  F6512  1  0.46849166  0.93491293  0.46194826  1.0
  F  F6513  1  0.55940075  0.01183601  0.46194826  1.0
  F  F6514  1  0.55940075  0.08875909  0.46194826  1.0
  F  F6515  1  0.55940075  0.16568216  0.46194826  1.0
  F  F6516  1  0.55940075  0.24260524  0.46194826  1.0
  F  F6517  1  0.55940075  0.31952832  0.46194826  1.0
  F  F6518  1  0.55940075  0.39645139  0.46194826  1.0
  F  F6519  1  0.55940075  0.47337447  0.46194826  1.0
  F  F6520  1  0.55940075  0.55029755  0.46194826  1.0
  F  F6521  1  0.55940075  0.62722062  0.46194826  1.0
  F  F6522  1  0.55940075  0.70414370  0.46194826  1.0
  F  F6523  1  0.55940075  0.78106678  0.46194826  1.0
  F  F6524  1  0.55940075  0.85798986  0.46194826  1.0
  F  F6525  1  0.55940075  0.93491293  0.46194826  1.0
  F  F6526  1  0.65030984  0.01183601  0.46194826  1.0
  F  F6527  1  0.65030984  0.08875909  0.46194826  1.0
  F  F6528  1  0.65030984  0.16568216  0.46194826  1.0
  F  F6529  1  0.65030984  0.24260524  0.46194826  1.0
  F  F6530  1  0.65030984  0.31952832  0.46194826  1.0
  F  F6531  1  0.65030984  0.39645139  0.46194826  1.0
  F  F6532  1  0.65030984  0.47337447  0.46194826  1.0
  F  F6533  1  0.65030984  0.55029755  0.46194826  1.0
  F  F6534  1  0.65030984  0.62722062  0.46194826  1.0
  F  F6535  1  0.65030984  0.70414370  0.46194826  1.0
  F  F6536  1  0.65030984  0.78106678  0.46194826  1.0
  F  F6537  1  0.65030984  0.85798986  0.46194826  1.0
  F  F6538  1  0.65030984  0.93491293  0.46194826  1.0
  F  F6539  1  0.74121893  0.01183601  0.46194826  1.0
  F  F6540  1  0.74121893  0.08875909  0.46194826  1.0
  F  F6541  1  0.74121893  0.16568216  0.46194826  1.0
  F  F6542  1  0.74121893  0.24260524  0.46194826  1.0
  F  F6543  1  0.74121893  0.31952832  0.46194826  1.0
  F  F6544  1  0.74121893  0.39645139  0.46194826  1.0
  F  F6545  1  0.74121893  0.47337447  0.46194826  1.0
  F  F6546  1  0.74121893  0.55029755  0.46194826  1.0
  F  F6547  1  0.74121893  0.62722062  0.46194826  1.0
  F  F6548  1  0.74121893  0.70414370  0.46194826  1.0
  F  F6549  1  0.74121893  0.78106678  0.46194826  1.0
  F  F6550  1  0.74121893  0.85798986  0.46194826  1.0
  F  F6551  1  0.74121893  0.93491293  0.46194826  1.0
  F  F6552  1  0.83212802  0.01183601  0.46194826  1.0
  F  F6553  1  0.83212802  0.08875909  0.46194826  1.0
  F  F6554  1  0.83212802  0.16568216  0.46194826  1.0
  F  F6555  1  0.83212802  0.24260524  0.46194826  1.0
  F  F6556  1  0.83212802  0.31952832  0.46194826  1.0
  F  F6557  1  0.83212802  0.39645139  0.46194826  1.0
  F  F6558  1  0.83212802  0.47337447  0.46194826  1.0
  F  F6559  1  0.83212802  0.55029755  0.46194826  1.0
  F  F6560  1  0.83212802  0.62722062  0.46194826  1.0
  F  F6561  1  0.83212802  0.70414370  0.46194826  1.0
  F  F6562  1  0.83212802  0.78106678  0.46194826  1.0
  F  F6563  1  0.83212802  0.85798986  0.46194826  1.0
  F  F6564  1  0.83212802  0.93491293  0.46194826  1.0
  F  F6565  1  0.92303711  0.01183601  0.46194826  1.0
  F  F6566  1  0.92303711  0.08875909  0.46194826  1.0
  F  F6567  1  0.92303711  0.16568216  0.46194826  1.0
  F  F6568  1  0.92303711  0.24260524  0.46194826  1.0
  F  F6569  1  0.92303711  0.31952832  0.46194826  1.0
  F  F6570  1  0.92303711  0.39645139  0.46194826  1.0
  F  F6571  1  0.92303711  0.47337447  0.46194826  1.0
  F  F6572  1  0.92303711  0.55029755  0.46194826  1.0
  F  F6573  1  0.92303711  0.62722062  0.46194826  1.0
  F  F6574  1  0.92303711  0.70414370  0.46194826  1.0
  F  F6575  1  0.92303711  0.78106678  0.46194826  1.0
  F  F6576  1  0.92303711  0.85798986  0.46194826  1.0
  F  F6577  1  0.92303711  0.93491293  0.46194826  1.0
  F  F6578  1  0.04424923  0.03747704  0.52861493  1.0
  F  F6579  1  0.04424923  0.11440011  0.52861493  1.0
  F  F6580  1  0.04424923  0.19132319  0.52861493  1.0
  F  F6581  1  0.04424923  0.26824627  0.52861493  1.0
  F  F6582  1  0.04424923  0.34516934  0.52861493  1.0
  F  F6583  1  0.04424923  0.42209242  0.52861493  1.0
  F  F6584  1  0.04424923  0.49901550  0.52861493  1.0
  F  F6585  1  0.04424923  0.57593857  0.52861493  1.0
  F  F6586  1  0.04424923  0.65286165  0.52861493  1.0
  F  F6587  1  0.04424923  0.72978473  0.52861493  1.0
  F  F6588  1  0.04424923  0.80670780  0.52861493  1.0
  F  F6589  1  0.04424923  0.88363088  0.52861493  1.0
  F  F6590  1  0.04424923  0.96055396  0.52861493  1.0
  F  F6591  1  0.13515832  0.03747704  0.52861493  1.0
  F  F6592  1  0.13515832  0.11440011  0.52861493  1.0
  F  F6593  1  0.13515832  0.19132319  0.52861493  1.0
  F  F6594  1  0.13515832  0.26824627  0.52861493  1.0
  F  F6595  1  0.13515832  0.34516934  0.52861493  1.0
  F  F6596  1  0.13515832  0.42209242  0.52861493  1.0
  F  F6597  1  0.13515832  0.49901550  0.52861493  1.0
  F  F6598  1  0.13515832  0.57593857  0.52861493  1.0
  F  F6599  1  0.13515832  0.65286165  0.52861493  1.0
  F  F6600  1  0.13515832  0.72978473  0.52861493  1.0
  F  F6601  1  0.13515832  0.80670780  0.52861493  1.0
  F  F6602  1  0.13515832  0.88363088  0.52861493  1.0
  F  F6603  1  0.13515832  0.96055396  0.52861493  1.0
  F  F6604  1  0.22606741  0.03747704  0.52861493  1.0
  F  F6605  1  0.22606741  0.11440011  0.52861493  1.0
  F  F6606  1  0.22606741  0.19132319  0.52861493  1.0
  F  F6607  1  0.22606741  0.26824627  0.52861493  1.0
  F  F6608  1  0.22606741  0.34516934  0.52861493  1.0
  F  F6609  1  0.22606741  0.42209242  0.52861493  1.0
  F  F6610  1  0.22606741  0.49901550  0.52861493  1.0
  F  F6611  1  0.22606741  0.57593857  0.52861493  1.0
  F  F6612  1  0.22606741  0.65286165  0.52861493  1.0
  F  F6613  1  0.22606741  0.72978473  0.52861493  1.0
  F  F6614  1  0.22606741  0.80670780  0.52861493  1.0
  F  F6615  1  0.22606741  0.88363088  0.52861493  1.0
  F  F6616  1  0.22606741  0.96055396  0.52861493  1.0
  F  F6617  1  0.31697650  0.03747704  0.52861493  1.0
  F  F6618  1  0.31697650  0.11440011  0.52861493  1.0
  F  F6619  1  0.31697650  0.19132319  0.52861493  1.0
  F  F6620  1  0.31697650  0.26824627  0.52861493  1.0
  F  F6621  1  0.31697650  0.34516934  0.52861493  1.0
  F  F6622  1  0.31697650  0.42209242  0.52861493  1.0
  F  F6623  1  0.31697650  0.49901550  0.52861493  1.0
  F  F6624  1  0.31697650  0.57593857  0.52861493  1.0
  F  F6625  1  0.31697650  0.65286165  0.52861493  1.0
  F  F6626  1  0.31697650  0.72978473  0.52861493  1.0
  F  F6627  1  0.31697650  0.80670780  0.52861493  1.0
  F  F6628  1  0.31697650  0.88363088  0.52861493  1.0
  F  F6629  1  0.31697650  0.96055396  0.52861493  1.0
  F  F6630  1  0.40788560  0.03747704  0.52861493  1.0
  F  F6631  1  0.40788560  0.11440011  0.52861493  1.0
  F  F6632  1  0.40788560  0.19132319  0.52861493  1.0
  F  F6633  1  0.40788560  0.26824627  0.52861493  1.0
  F  F6634  1  0.40788560  0.34516934  0.52861493  1.0
  F  F6635  1  0.40788560  0.42209242  0.52861493  1.0
  F  F6636  1  0.40788560  0.49901550  0.52861493  1.0
  F  F6637  1  0.40788560  0.57593857  0.52861493  1.0
  F  F6638  1  0.40788560  0.65286165  0.52861493  1.0
  F  F6639  1  0.40788560  0.72978473  0.52861493  1.0
  F  F6640  1  0.40788560  0.80670780  0.52861493  1.0
  F  F6641  1  0.40788560  0.88363088  0.52861493  1.0
  F  F6642  1  0.40788560  0.96055396  0.52861493  1.0
  F  F6643  1  0.49879469  0.03747704  0.52861493  1.0
  F  F6644  1  0.49879469  0.11440011  0.52861493  1.0
  F  F6645  1  0.49879469  0.19132319  0.52861493  1.0
  F  F6646  1  0.49879469  0.26824627  0.52861493  1.0
  F  F6647  1  0.49879469  0.34516934  0.52861493  1.0
  F  F6648  1  0.49879469  0.42209242  0.52861493  1.0
  F  F6649  1  0.49879469  0.49901550  0.52861493  1.0
  F  F6650  1  0.49879469  0.57593857  0.52861493  1.0
  F  F6651  1  0.49879469  0.65286165  0.52861493  1.0
  F  F6652  1  0.49879469  0.72978473  0.52861493  1.0
  F  F6653  1  0.49879469  0.80670780  0.52861493  1.0
  F  F6654  1  0.49879469  0.88363088  0.52861493  1.0
  F  F6655  1  0.49879469  0.96055396  0.52861493  1.0
  F  F6656  1  0.58970378  0.03747704  0.52861493  1.0
  F  F6657  1  0.58970378  0.11440011  0.52861493  1.0
  F  F6658  1  0.58970378  0.19132319  0.52861493  1.0
  F  F6659  1  0.58970378  0.26824627  0.52861493  1.0
  F  F6660  1  0.58970378  0.34516934  0.52861493  1.0
  F  F6661  1  0.58970378  0.42209242  0.52861493  1.0
  F  F6662  1  0.58970378  0.49901550  0.52861493  1.0
  F  F6663  1  0.58970378  0.57593857  0.52861493  1.0
  F  F6664  1  0.58970378  0.65286165  0.52861493  1.0
  F  F6665  1  0.58970378  0.72978473  0.52861493  1.0
  F  F6666  1  0.58970378  0.80670780  0.52861493  1.0
  F  F6667  1  0.58970378  0.88363088  0.52861493  1.0
  F  F6668  1  0.58970378  0.96055396  0.52861493  1.0
  F  F6669  1  0.68061287  0.03747704  0.52861493  1.0
  F  F6670  1  0.68061287  0.11440011  0.52861493  1.0
  F  F6671  1  0.68061287  0.19132319  0.52861493  1.0
  F  F6672  1  0.68061287  0.26824627  0.52861493  1.0
  F  F6673  1  0.68061287  0.34516934  0.52861493  1.0
  F  F6674  1  0.68061287  0.42209242  0.52861493  1.0
  F  F6675  1  0.68061287  0.49901550  0.52861493  1.0
  F  F6676  1  0.68061287  0.57593857  0.52861493  1.0
  F  F6677  1  0.68061287  0.65286165  0.52861493  1.0
  F  F6678  1  0.68061287  0.72978473  0.52861493  1.0
  F  F6679  1  0.68061287  0.80670780  0.52861493  1.0
  F  F6680  1  0.68061287  0.88363088  0.52861493  1.0
  F  F6681  1  0.68061287  0.96055396  0.52861493  1.0
  F  F6682  1  0.77152196  0.03747704  0.52861493  1.0
  F  F6683  1  0.77152196  0.11440011  0.52861493  1.0
  F  F6684  1  0.77152196  0.19132319  0.52861493  1.0
  F  F6685  1  0.77152196  0.26824627  0.52861493  1.0
  F  F6686  1  0.77152196  0.34516934  0.52861493  1.0
  F  F6687  1  0.77152196  0.42209242  0.52861493  1.0
  F  F6688  1  0.77152196  0.49901550  0.52861493  1.0
  F  F6689  1  0.77152196  0.57593857  0.52861493  1.0
  F  F6690  1  0.77152196  0.65286165  0.52861493  1.0
  F  F6691  1  0.77152196  0.72978473  0.52861493  1.0
  F  F6692  1  0.77152196  0.80670780  0.52861493  1.0
  F  F6693  1  0.77152196  0.88363088  0.52861493  1.0
  F  F6694  1  0.77152196  0.96055396  0.52861493  1.0
  F  F6695  1  0.86243105  0.03747704  0.52861493  1.0
  F  F6696  1  0.86243105  0.11440011  0.52861493  1.0
  F  F6697  1  0.86243105  0.19132319  0.52861493  1.0
  F  F6698  1  0.86243105  0.26824627  0.52861493  1.0
  F  F6699  1  0.86243105  0.34516934  0.52861493  1.0
  F  F6700  1  0.86243105  0.42209242  0.52861493  1.0
  F  F6701  1  0.86243105  0.49901550  0.52861493  1.0
  F  F6702  1  0.86243105  0.57593857  0.52861493  1.0
  F  F6703  1  0.86243105  0.65286165  0.52861493  1.0
  F  F6704  1  0.86243105  0.72978473  0.52861493  1.0
  F  F6705  1  0.86243105  0.80670780  0.52861493  1.0
  F  F6706  1  0.86243105  0.88363088  0.52861493  1.0
  F  F6707  1  0.86243105  0.96055396  0.52861493  1.0
  F  F6708  1  0.95334014  0.03747704  0.52861493  1.0
  F  F6709  1  0.95334014  0.11440011  0.52861493  1.0
  F  F6710  1  0.95334014  0.19132319  0.52861493  1.0
  F  F6711  1  0.95334014  0.26824627  0.52861493  1.0
  F  F6712  1  0.95334014  0.34516934  0.52861493  1.0
  F  F6713  1  0.95334014  0.42209242  0.52861493  1.0
  F  F6714  1  0.95334014  0.49901550  0.52861493  1.0
  F  F6715  1  0.95334014  0.57593857  0.52861493  1.0
  F  F6716  1  0.95334014  0.65286165  0.52861493  1.0
  F  F6717  1  0.95334014  0.72978473  0.52861493  1.0
  F  F6718  1  0.95334014  0.80670780  0.52861493  1.0
  F  F6719  1  0.95334014  0.88363088  0.52861493  1.0
  F  F6720  1  0.95334014  0.96055396  0.52861493  1.0
  F  F6721  1  0.07455226  0.06311806  0.59528160  1.0
  F  F6722  1  0.07455226  0.14004114  0.59528160  1.0
  F  F6723  1  0.07455226  0.21696421  0.59528160  1.0
  F  F6724  1  0.07455226  0.29388729  0.59528160  1.0
  F  F6725  1  0.07455226  0.37081037  0.59528160  1.0
  F  F6726  1  0.07455226  0.44773345  0.59528160  1.0
  F  F6727  1  0.07455226  0.52465652  0.59528160  1.0
  F  F6728  1  0.07455226  0.60157960  0.59528160  1.0
  F  F6729  1  0.07455226  0.67850268  0.59528160  1.0
  F  F6730  1  0.07455226  0.75542575  0.59528160  1.0
  F  F6731  1  0.07455226  0.83234883  0.59528160  1.0
  F  F6732  1  0.07455226  0.90927191  0.59528160  1.0
  F  F6733  1  0.07455226  0.98619498  0.59528160  1.0
  F  F6734  1  0.16546135  0.06311806  0.59528160  1.0
  F  F6735  1  0.16546135  0.14004114  0.59528160  1.0
  F  F6736  1  0.16546135  0.21696421  0.59528160  1.0
  F  F6737  1  0.16546135  0.29388729  0.59528160  1.0
  F  F6738  1  0.16546135  0.37081037  0.59528160  1.0
  F  F6739  1  0.16546135  0.44773345  0.59528160  1.0
  F  F6740  1  0.16546135  0.52465652  0.59528160  1.0
  F  F6741  1  0.16546135  0.60157960  0.59528160  1.0
  F  F6742  1  0.16546135  0.67850268  0.59528160  1.0
  F  F6743  1  0.16546135  0.75542575  0.59528160  1.0
  F  F6744  1  0.16546135  0.83234883  0.59528160  1.0
  F  F6745  1  0.16546135  0.90927191  0.59528160  1.0
  F  F6746  1  0.16546135  0.98619498  0.59528160  1.0
  F  F6747  1  0.25637044  0.06311806  0.59528160  1.0
  F  F6748  1  0.25637044  0.14004114  0.59528160  1.0
  F  F6749  1  0.25637044  0.21696421  0.59528160  1.0
  F  F6750  1  0.25637044  0.29388729  0.59528160  1.0
  F  F6751  1  0.25637044  0.37081037  0.59528160  1.0
  F  F6752  1  0.25637044  0.44773345  0.59528160  1.0
  F  F6753  1  0.25637044  0.52465652  0.59528160  1.0
  F  F6754  1  0.25637044  0.60157960  0.59528160  1.0
  F  F6755  1  0.25637044  0.67850268  0.59528160  1.0
  F  F6756  1  0.25637044  0.75542575  0.59528160  1.0
  F  F6757  1  0.25637044  0.83234883  0.59528160  1.0
  F  F6758  1  0.25637044  0.90927191  0.59528160  1.0
  F  F6759  1  0.25637044  0.98619498  0.59528160  1.0
  F  F6760  1  0.34727953  0.06311806  0.59528160  1.0
  F  F6761  1  0.34727953  0.14004114  0.59528160  1.0
  F  F6762  1  0.34727953  0.21696421  0.59528160  1.0
  F  F6763  1  0.34727953  0.29388729  0.59528160  1.0
  F  F6764  1  0.34727953  0.37081037  0.59528160  1.0
  F  F6765  1  0.34727953  0.44773345  0.59528160  1.0
  F  F6766  1  0.34727953  0.52465652  0.59528160  1.0
  F  F6767  1  0.34727953  0.60157960  0.59528160  1.0
  F  F6768  1  0.34727953  0.67850268  0.59528160  1.0
  F  F6769  1  0.34727953  0.75542575  0.59528160  1.0
  F  F6770  1  0.34727953  0.83234883  0.59528160  1.0
  F  F6771  1  0.34727953  0.90927191  0.59528160  1.0
  F  F6772  1  0.34727953  0.98619498  0.59528160  1.0
  F  F6773  1  0.43818863  0.06311806  0.59528160  1.0
  F  F6774  1  0.43818863  0.14004114  0.59528160  1.0
  F  F6775  1  0.43818863  0.21696421  0.59528160  1.0
  F  F6776  1  0.43818863  0.29388729  0.59528160  1.0
  F  F6777  1  0.43818863  0.37081037  0.59528160  1.0
  F  F6778  1  0.43818863  0.44773345  0.59528160  1.0
  F  F6779  1  0.43818863  0.52465652  0.59528160  1.0
  F  F6780  1  0.43818863  0.60157960  0.59528160  1.0
  F  F6781  1  0.43818863  0.67850268  0.59528160  1.0
  F  F6782  1  0.43818863  0.75542575  0.59528160  1.0
  F  F6783  1  0.43818863  0.83234883  0.59528160  1.0
  F  F6784  1  0.43818863  0.90927191  0.59528160  1.0
  F  F6785  1  0.43818863  0.98619498  0.59528160  1.0
  F  F6786  1  0.52909772  0.06311806  0.59528160  1.0
  F  F6787  1  0.52909772  0.14004114  0.59528160  1.0
  F  F6788  1  0.52909772  0.21696421  0.59528160  1.0
  F  F6789  1  0.52909772  0.29388729  0.59528160  1.0
  F  F6790  1  0.52909772  0.37081037  0.59528160  1.0
  F  F6791  1  0.52909772  0.44773345  0.59528160  1.0
  F  F6792  1  0.52909772  0.52465652  0.59528160  1.0
  F  F6793  1  0.52909772  0.60157960  0.59528160  1.0
  F  F6794  1  0.52909772  0.67850268  0.59528160  1.0
  F  F6795  1  0.52909772  0.75542575  0.59528160  1.0
  F  F6796  1  0.52909772  0.83234883  0.59528160  1.0
  F  F6797  1  0.52909772  0.90927191  0.59528160  1.0
  F  F6798  1  0.52909772  0.98619498  0.59528160  1.0
  F  F6799  1  0.62000681  0.06311806  0.59528160  1.0
  F  F6800  1  0.62000681  0.14004114  0.59528160  1.0
  F  F6801  1  0.62000681  0.21696421  0.59528160  1.0
  F  F6802  1  0.62000681  0.29388729  0.59528160  1.0
  F  F6803  1  0.62000681  0.37081037  0.59528160  1.0
  F  F6804  1  0.62000681  0.44773345  0.59528160  1.0
  F  F6805  1  0.62000681  0.52465652  0.59528160  1.0
  F  F6806  1  0.62000681  0.60157960  0.59528160  1.0
  F  F6807  1  0.62000681  0.67850268  0.59528160  1.0
  F  F6808  1  0.62000681  0.75542575  0.59528160  1.0
  F  F6809  1  0.62000681  0.83234883  0.59528160  1.0
  F  F6810  1  0.62000681  0.90927191  0.59528160  1.0
  F  F6811  1  0.62000681  0.98619498  0.59528160  1.0
  F  F6812  1  0.71091590  0.06311806  0.59528160  1.0
  F  F6813  1  0.71091590  0.14004114  0.59528160  1.0
  F  F6814  1  0.71091590  0.21696421  0.59528160  1.0
  F  F6815  1  0.71091590  0.29388729  0.59528160  1.0
  F  F6816  1  0.71091590  0.37081037  0.59528160  1.0
  F  F6817  1  0.71091590  0.44773345  0.59528160  1.0
  F  F6818  1  0.71091590  0.52465652  0.59528160  1.0
  F  F6819  1  0.71091590  0.60157960  0.59528160  1.0
  F  F6820  1  0.71091590  0.67850268  0.59528160  1.0
  F  F6821  1  0.71091590  0.75542575  0.59528160  1.0
  F  F6822  1  0.71091590  0.83234883  0.59528160  1.0
  F  F6823  1  0.71091590  0.90927191  0.59528160  1.0
  F  F6824  1  0.71091590  0.98619498  0.59528160  1.0
  F  F6825  1  0.80182499  0.06311806  0.59528160  1.0
  F  F6826  1  0.80182499  0.14004114  0.59528160  1.0
  F  F6827  1  0.80182499  0.21696421  0.59528160  1.0
  F  F6828  1  0.80182499  0.29388729  0.59528160  1.0
  F  F6829  1  0.80182499  0.37081037  0.59528160  1.0
  F  F6830  1  0.80182499  0.44773345  0.59528160  1.0
  F  F6831  1  0.80182499  0.52465652  0.59528160  1.0
  F  F6832  1  0.80182499  0.60157960  0.59528160  1.0
  F  F6833  1  0.80182499  0.67850268  0.59528160  1.0
  F  F6834  1  0.80182499  0.75542575  0.59528160  1.0
  F  F6835  1  0.80182499  0.83234883  0.59528160  1.0
  F  F6836  1  0.80182499  0.90927191  0.59528160  1.0
  F  F6837  1  0.80182499  0.98619498  0.59528160  1.0
  F  F6838  1  0.89273408  0.06311806  0.59528160  1.0
  F  F6839  1  0.89273408  0.14004114  0.59528160  1.0
  F  F6840  1  0.89273408  0.21696421  0.59528160  1.0
  F  F6841  1  0.89273408  0.29388729  0.59528160  1.0
  F  F6842  1  0.89273408  0.37081037  0.59528160  1.0
  F  F6843  1  0.89273408  0.44773345  0.59528160  1.0
  F  F6844  1  0.89273408  0.52465652  0.59528160  1.0
  F  F6845  1  0.89273408  0.60157960  0.59528160  1.0
  F  F6846  1  0.89273408  0.67850268  0.59528160  1.0
  F  F6847  1  0.89273408  0.75542575  0.59528160  1.0
  F  F6848  1  0.89273408  0.83234883  0.59528160  1.0
  F  F6849  1  0.89273408  0.90927191  0.59528160  1.0
  F  F6850  1  0.89273408  0.98619498  0.59528160  1.0
  F  F6851  1  0.98364317  0.06311806  0.59528160  1.0
  F  F6852  1  0.98364317  0.14004114  0.59528160  1.0
  F  F6853  1  0.98364317  0.21696421  0.59528160  1.0
  F  F6854  1  0.98364317  0.29388729  0.59528160  1.0
  F  F6855  1  0.98364317  0.37081037  0.59528160  1.0
  F  F6856  1  0.98364317  0.44773345  0.59528160  1.0
  F  F6857  1  0.98364317  0.52465652  0.59528160  1.0
  F  F6858  1  0.98364317  0.60157960  0.59528160  1.0
  F  F6859  1  0.98364317  0.67850268  0.59528160  1.0
  F  F6860  1  0.98364317  0.75542575  0.59528160  1.0
  F  F6861  1  0.98364317  0.83234883  0.59528160  1.0
  F  F6862  1  0.98364317  0.90927191  0.59528160  1.0
  F  F6863  1  0.98364317  0.98619498  0.59528160  1.0
  F  F6864  1  0.07843745  0.02589779  0.49731196  1.0
  F  F6865  1  0.07843745  0.10282087  0.49731196  1.0
  F  F6866  1  0.07843745  0.17974395  0.49731196  1.0
  F  F6867  1  0.07843745  0.25666703  0.49731196  1.0
  F  F6868  1  0.07843745  0.33359010  0.49731196  1.0
  F  F6869  1  0.07843745  0.41051318  0.49731196  1.0
  F  F6870  1  0.07843745  0.48743626  0.49731196  1.0
  F  F6871  1  0.07843745  0.56435933  0.49731196  1.0
  F  F6872  1  0.07843745  0.64128241  0.49731196  1.0
  F  F6873  1  0.07843745  0.71820549  0.49731196  1.0
  F  F6874  1  0.07843745  0.79512856  0.49731196  1.0
  F  F6875  1  0.07843745  0.87205164  0.49731196  1.0
  F  F6876  1  0.07843745  0.94897472  0.49731196  1.0
  F  F6877  1  0.16934654  0.02589779  0.49731196  1.0
  F  F6878  1  0.16934654  0.10282087  0.49731196  1.0
  F  F6879  1  0.16934654  0.17974395  0.49731196  1.0
  F  F6880  1  0.16934654  0.25666703  0.49731196  1.0
  F  F6881  1  0.16934654  0.33359010  0.49731196  1.0
  F  F6882  1  0.16934654  0.41051318  0.49731196  1.0
  F  F6883  1  0.16934654  0.48743626  0.49731196  1.0
  F  F6884  1  0.16934654  0.56435933  0.49731196  1.0
  F  F6885  1  0.16934654  0.64128241  0.49731196  1.0
  F  F6886  1  0.16934654  0.71820549  0.49731196  1.0
  F  F6887  1  0.16934654  0.79512856  0.49731196  1.0
  F  F6888  1  0.16934654  0.87205164  0.49731196  1.0
  F  F6889  1  0.16934654  0.94897472  0.49731196  1.0
  F  F6890  1  0.26025564  0.02589779  0.49731196  1.0
  F  F6891  1  0.26025564  0.10282087  0.49731196  1.0
  F  F6892  1  0.26025564  0.17974395  0.49731196  1.0
  F  F6893  1  0.26025564  0.25666703  0.49731196  1.0
  F  F6894  1  0.26025564  0.33359010  0.49731196  1.0
  F  F6895  1  0.26025564  0.41051318  0.49731196  1.0
  F  F6896  1  0.26025564  0.48743626  0.49731196  1.0
  F  F6897  1  0.26025564  0.56435933  0.49731196  1.0
  F  F6898  1  0.26025564  0.64128241  0.49731196  1.0
  F  F6899  1  0.26025564  0.71820549  0.49731196  1.0
  F  F6900  1  0.26025564  0.79512856  0.49731196  1.0
  F  F6901  1  0.26025564  0.87205164  0.49731196  1.0
  F  F6902  1  0.26025564  0.94897472  0.49731196  1.0
  F  F6903  1  0.35116473  0.02589779  0.49731196  1.0
  F  F6904  1  0.35116473  0.10282087  0.49731196  1.0
  F  F6905  1  0.35116473  0.17974395  0.49731196  1.0
  F  F6906  1  0.35116473  0.25666703  0.49731196  1.0
  F  F6907  1  0.35116473  0.33359010  0.49731196  1.0
  F  F6908  1  0.35116473  0.41051318  0.49731196  1.0
  F  F6909  1  0.35116473  0.48743626  0.49731196  1.0
  F  F6910  1  0.35116473  0.56435933  0.49731196  1.0
  F  F6911  1  0.35116473  0.64128241  0.49731196  1.0
  F  F6912  1  0.35116473  0.71820549  0.49731196  1.0
  F  F6913  1  0.35116473  0.79512856  0.49731196  1.0
  F  F6914  1  0.35116473  0.87205164  0.49731196  1.0
  F  F6915  1  0.35116473  0.94897472  0.49731196  1.0
  F  F6916  1  0.44207382  0.02589779  0.49731196  1.0
  F  F6917  1  0.44207382  0.10282087  0.49731196  1.0
  F  F6918  1  0.44207382  0.17974395  0.49731196  1.0
  F  F6919  1  0.44207382  0.25666703  0.49731196  1.0
  F  F6920  1  0.44207382  0.33359010  0.49731196  1.0
  F  F6921  1  0.44207382  0.41051318  0.49731196  1.0
  F  F6922  1  0.44207382  0.48743626  0.49731196  1.0
  F  F6923  1  0.44207382  0.56435933  0.49731196  1.0
  F  F6924  1  0.44207382  0.64128241  0.49731196  1.0
  F  F6925  1  0.44207382  0.71820549  0.49731196  1.0
  F  F6926  1  0.44207382  0.79512856  0.49731196  1.0
  F  F6927  1  0.44207382  0.87205164  0.49731196  1.0
  F  F6928  1  0.44207382  0.94897472  0.49731196  1.0
  F  F6929  1  0.53298291  0.02589779  0.49731196  1.0
  F  F6930  1  0.53298291  0.10282087  0.49731196  1.0
  F  F6931  1  0.53298291  0.17974395  0.49731196  1.0
  F  F6932  1  0.53298291  0.25666703  0.49731196  1.0
  F  F6933  1  0.53298291  0.33359010  0.49731196  1.0
  F  F6934  1  0.53298291  0.41051318  0.49731196  1.0
  F  F6935  1  0.53298291  0.48743626  0.49731196  1.0
  F  F6936  1  0.53298291  0.56435933  0.49731196  1.0
  F  F6937  1  0.53298291  0.64128241  0.49731196  1.0
  F  F6938  1  0.53298291  0.71820549  0.49731196  1.0
  F  F6939  1  0.53298291  0.79512856  0.49731196  1.0
  F  F6940  1  0.53298291  0.87205164  0.49731196  1.0
  F  F6941  1  0.53298291  0.94897472  0.49731196  1.0
  F  F6942  1  0.62389200  0.02589779  0.49731196  1.0
  F  F6943  1  0.62389200  0.10282087  0.49731196  1.0
  F  F6944  1  0.62389200  0.17974395  0.49731196  1.0
  F  F6945  1  0.62389200  0.25666703  0.49731196  1.0
  F  F6946  1  0.62389200  0.33359010  0.49731196  1.0
  F  F6947  1  0.62389200  0.41051318  0.49731196  1.0
  F  F6948  1  0.62389200  0.48743626  0.49731196  1.0
  F  F6949  1  0.62389200  0.56435933  0.49731196  1.0
  F  F6950  1  0.62389200  0.64128241  0.49731196  1.0
  F  F6951  1  0.62389200  0.71820549  0.49731196  1.0
  F  F6952  1  0.62389200  0.79512856  0.49731196  1.0
  F  F6953  1  0.62389200  0.87205164  0.49731196  1.0
  F  F6954  1  0.62389200  0.94897472  0.49731196  1.0
  F  F6955  1  0.71480109  0.02589779  0.49731196  1.0
  F  F6956  1  0.71480109  0.10282087  0.49731196  1.0
  F  F6957  1  0.71480109  0.17974395  0.49731196  1.0
  F  F6958  1  0.71480109  0.25666703  0.49731196  1.0
  F  F6959  1  0.71480109  0.33359010  0.49731196  1.0
  F  F6960  1  0.71480109  0.41051318  0.49731196  1.0
  F  F6961  1  0.71480109  0.48743626  0.49731196  1.0
  F  F6962  1  0.71480109  0.56435933  0.49731196  1.0
  F  F6963  1  0.71480109  0.64128241  0.49731196  1.0
  F  F6964  1  0.71480109  0.71820549  0.49731196  1.0
  F  F6965  1  0.71480109  0.79512856  0.49731196  1.0
  F  F6966  1  0.71480109  0.87205164  0.49731196  1.0
  F  F6967  1  0.71480109  0.94897472  0.49731196  1.0
  F  F6968  1  0.80571018  0.02589779  0.49731196  1.0
  F  F6969  1  0.80571018  0.10282087  0.49731196  1.0
  F  F6970  1  0.80571018  0.17974395  0.49731196  1.0
  F  F6971  1  0.80571018  0.25666703  0.49731196  1.0
  F  F6972  1  0.80571018  0.33359010  0.49731196  1.0
  F  F6973  1  0.80571018  0.41051318  0.49731196  1.0
  F  F6974  1  0.80571018  0.48743626  0.49731196  1.0
  F  F6975  1  0.80571018  0.56435933  0.49731196  1.0
  F  F6976  1  0.80571018  0.64128241  0.49731196  1.0
  F  F6977  1  0.80571018  0.71820549  0.49731196  1.0
  F  F6978  1  0.80571018  0.79512856  0.49731196  1.0
  F  F6979  1  0.80571018  0.87205164  0.49731196  1.0
  F  F6980  1  0.80571018  0.94897472  0.49731196  1.0
  F  F6981  1  0.89661927  0.02589779  0.49731196  1.0
  F  F6982  1  0.89661927  0.10282087  0.49731196  1.0
  F  F6983  1  0.89661927  0.17974395  0.49731196  1.0
  F  F6984  1  0.89661927  0.25666703  0.49731196  1.0
  F  F6985  1  0.89661927  0.33359010  0.49731196  1.0
  F  F6986  1  0.89661927  0.41051318  0.49731196  1.0
  F  F6987  1  0.89661927  0.48743626  0.49731196  1.0
  F  F6988  1  0.89661927  0.56435933  0.49731196  1.0
  F  F6989  1  0.89661927  0.64128241  0.49731196  1.0
  F  F6990  1  0.89661927  0.71820549  0.49731196  1.0
  F  F6991  1  0.89661927  0.79512856  0.49731196  1.0
  F  F6992  1  0.89661927  0.87205164  0.49731196  1.0
  F  F6993  1  0.89661927  0.94897472  0.49731196  1.0
  F  F6994  1  0.98752836  0.02589779  0.49731196  1.0
  F  F6995  1  0.98752836  0.10282087  0.49731196  1.0
  F  F6996  1  0.98752836  0.17974395  0.49731196  1.0
  F  F6997  1  0.98752836  0.25666703  0.49731196  1.0
  F  F6998  1  0.98752836  0.33359010  0.49731196  1.0
  F  F6999  1  0.98752836  0.41051318  0.49731196  1.0
  F  F7000  1  0.98752836  0.48743626  0.49731196  1.0
  F  F7001  1  0.98752836  0.56435933  0.49731196  1.0
  F  F7002  1  0.98752836  0.64128241  0.49731196  1.0
  F  F7003  1  0.98752836  0.71820549  0.49731196  1.0
  F  F7004  1  0.98752836  0.79512856  0.49731196  1.0
  F  F7005  1  0.98752836  0.87205164  0.49731196  1.0
  F  F7006  1  0.98752836  0.94897472  0.49731196  1.0
  F  F7007  1  0.01783139  0.05153882  0.56397863  1.0
  F  F7008  1  0.01783139  0.12846190  0.56397863  1.0
  F  F7009  1  0.01783139  0.20538497  0.56397863  1.0
  F  F7010  1  0.01783139  0.28230805  0.56397863  1.0
  F  F7011  1  0.01783139  0.35923113  0.56397863  1.0
  F  F7012  1  0.01783139  0.43615420  0.56397863  1.0
  F  F7013  1  0.01783139  0.51307728  0.56397863  1.0
  F  F7014  1  0.01783139  0.59000036  0.56397863  1.0
  F  F7015  1  0.01783139  0.66692344  0.56397863  1.0
  F  F7016  1  0.01783139  0.74384651  0.56397863  1.0
  F  F7017  1  0.01783139  0.82076959  0.56397863  1.0
  F  F7018  1  0.01783139  0.89769267  0.56397863  1.0
  F  F7019  1  0.01783139  0.97461574  0.56397863  1.0
  F  F7020  1  0.10874048  0.05153882  0.56397863  1.0
  F  F7021  1  0.10874048  0.12846190  0.56397863  1.0
  F  F7022  1  0.10874048  0.20538497  0.56397863  1.0
  F  F7023  1  0.10874048  0.28230805  0.56397863  1.0
  F  F7024  1  0.10874048  0.35923113  0.56397863  1.0
  F  F7025  1  0.10874048  0.43615420  0.56397863  1.0
  F  F7026  1  0.10874048  0.51307728  0.56397863  1.0
  F  F7027  1  0.10874048  0.59000036  0.56397863  1.0
  F  F7028  1  0.10874048  0.66692344  0.56397863  1.0
  F  F7029  1  0.10874048  0.74384651  0.56397863  1.0
  F  F7030  1  0.10874048  0.82076959  0.56397863  1.0
  F  F7031  1  0.10874048  0.89769267  0.56397863  1.0
  F  F7032  1  0.10874048  0.97461574  0.56397863  1.0
  F  F7033  1  0.19964957  0.05153882  0.56397863  1.0
  F  F7034  1  0.19964957  0.12846190  0.56397863  1.0
  F  F7035  1  0.19964957  0.20538497  0.56397863  1.0
  F  F7036  1  0.19964957  0.28230805  0.56397863  1.0
  F  F7037  1  0.19964957  0.35923113  0.56397863  1.0
  F  F7038  1  0.19964957  0.43615420  0.56397863  1.0
  F  F7039  1  0.19964957  0.51307728  0.56397863  1.0
  F  F7040  1  0.19964957  0.59000036  0.56397863  1.0
  F  F7041  1  0.19964957  0.66692344  0.56397863  1.0
  F  F7042  1  0.19964957  0.74384651  0.56397863  1.0
  F  F7043  1  0.19964957  0.82076959  0.56397863  1.0
  F  F7044  1  0.19964957  0.89769267  0.56397863  1.0
  F  F7045  1  0.19964957  0.97461574  0.56397863  1.0
  F  F7046  1  0.29055867  0.05153882  0.56397863  1.0
  F  F7047  1  0.29055867  0.12846190  0.56397863  1.0
  F  F7048  1  0.29055867  0.20538497  0.56397863  1.0
  F  F7049  1  0.29055867  0.28230805  0.56397863  1.0
  F  F7050  1  0.29055867  0.35923113  0.56397863  1.0
  F  F7051  1  0.29055867  0.43615420  0.56397863  1.0
  F  F7052  1  0.29055867  0.51307728  0.56397863  1.0
  F  F7053  1  0.29055867  0.59000036  0.56397863  1.0
  F  F7054  1  0.29055867  0.66692344  0.56397863  1.0
  F  F7055  1  0.29055867  0.74384651  0.56397863  1.0
  F  F7056  1  0.29055867  0.82076959  0.56397863  1.0
  F  F7057  1  0.29055867  0.89769267  0.56397863  1.0
  F  F7058  1  0.29055867  0.97461574  0.56397863  1.0
  F  F7059  1  0.38146776  0.05153882  0.56397863  1.0
  F  F7060  1  0.38146776  0.12846190  0.56397863  1.0
  F  F7061  1  0.38146776  0.20538497  0.56397863  1.0
  F  F7062  1  0.38146776  0.28230805  0.56397863  1.0
  F  F7063  1  0.38146776  0.35923113  0.56397863  1.0
  F  F7064  1  0.38146776  0.43615420  0.56397863  1.0
  F  F7065  1  0.38146776  0.51307728  0.56397863  1.0
  F  F7066  1  0.38146776  0.59000036  0.56397863  1.0
  F  F7067  1  0.38146776  0.66692344  0.56397863  1.0
  F  F7068  1  0.38146776  0.74384651  0.56397863  1.0
  F  F7069  1  0.38146776  0.82076959  0.56397863  1.0
  F  F7070  1  0.38146776  0.89769267  0.56397863  1.0
  F  F7071  1  0.38146776  0.97461574  0.56397863  1.0
  F  F7072  1  0.47237685  0.05153882  0.56397863  1.0
  F  F7073  1  0.47237685  0.12846190  0.56397863  1.0
  F  F7074  1  0.47237685  0.20538497  0.56397863  1.0
  F  F7075  1  0.47237685  0.28230805  0.56397863  1.0
  F  F7076  1  0.47237685  0.35923113  0.56397863  1.0
  F  F7077  1  0.47237685  0.43615420  0.56397863  1.0
  F  F7078  1  0.47237685  0.51307728  0.56397863  1.0
  F  F7079  1  0.47237685  0.59000036  0.56397863  1.0
  F  F7080  1  0.47237685  0.66692344  0.56397863  1.0
  F  F7081  1  0.47237685  0.74384651  0.56397863  1.0
  F  F7082  1  0.47237685  0.82076959  0.56397863  1.0
  F  F7083  1  0.47237685  0.89769267  0.56397863  1.0
  F  F7084  1  0.47237685  0.97461574  0.56397863  1.0
  F  F7085  1  0.56328594  0.05153882  0.56397863  1.0
  F  F7086  1  0.56328594  0.12846190  0.56397863  1.0
  F  F7087  1  0.56328594  0.20538497  0.56397863  1.0
  F  F7088  1  0.56328594  0.28230805  0.56397863  1.0
  F  F7089  1  0.56328594  0.35923113  0.56397863  1.0
  F  F7090  1  0.56328594  0.43615420  0.56397863  1.0
  F  F7091  1  0.56328594  0.51307728  0.56397863  1.0
  F  F7092  1  0.56328594  0.59000036  0.56397863  1.0
  F  F7093  1  0.56328594  0.66692344  0.56397863  1.0
  F  F7094  1  0.56328594  0.74384651  0.56397863  1.0
  F  F7095  1  0.56328594  0.82076959  0.56397863  1.0
  F  F7096  1  0.56328594  0.89769267  0.56397863  1.0
  F  F7097  1  0.56328594  0.97461574  0.56397863  1.0
  F  F7098  1  0.65419503  0.05153882  0.56397863  1.0
  F  F7099  1  0.65419503  0.12846190  0.56397863  1.0
  F  F7100  1  0.65419503  0.20538497  0.56397863  1.0
  F  F7101  1  0.65419503  0.28230805  0.56397863  1.0
  F  F7102  1  0.65419503  0.35923113  0.56397863  1.0
  F  F7103  1  0.65419503  0.43615420  0.56397863  1.0
  F  F7104  1  0.65419503  0.51307728  0.56397863  1.0
  F  F7105  1  0.65419503  0.59000036  0.56397863  1.0
  F  F7106  1  0.65419503  0.66692344  0.56397863  1.0
  F  F7107  1  0.65419503  0.74384651  0.56397863  1.0
  F  F7108  1  0.65419503  0.82076959  0.56397863  1.0
  F  F7109  1  0.65419503  0.89769267  0.56397863  1.0
  F  F7110  1  0.65419503  0.97461574  0.56397863  1.0
  F  F7111  1  0.74510412  0.05153882  0.56397863  1.0
  F  F7112  1  0.74510412  0.12846190  0.56397863  1.0
  F  F7113  1  0.74510412  0.20538497  0.56397863  1.0
  F  F7114  1  0.74510412  0.28230805  0.56397863  1.0
  F  F7115  1  0.74510412  0.35923113  0.56397863  1.0
  F  F7116  1  0.74510412  0.43615420  0.56397863  1.0
  F  F7117  1  0.74510412  0.51307728  0.56397863  1.0
  F  F7118  1  0.74510412  0.59000036  0.56397863  1.0
  F  F7119  1  0.74510412  0.66692344  0.56397863  1.0
  F  F7120  1  0.74510412  0.74384651  0.56397863  1.0
  F  F7121  1  0.74510412  0.82076959  0.56397863  1.0
  F  F7122  1  0.74510412  0.89769267  0.56397863  1.0
  F  F7123  1  0.74510412  0.97461574  0.56397863  1.0
  F  F7124  1  0.83601321  0.05153882  0.56397863  1.0
  F  F7125  1  0.83601321  0.12846190  0.56397863  1.0
  F  F7126  1  0.83601321  0.20538497  0.56397863  1.0
  F  F7127  1  0.83601321  0.28230805  0.56397863  1.0
  F  F7128  1  0.83601321  0.35923113  0.56397863  1.0
  F  F7129  1  0.83601321  0.43615420  0.56397863  1.0
  F  F7130  1  0.83601321  0.51307728  0.56397863  1.0
  F  F7131  1  0.83601321  0.59000036  0.56397863  1.0
  F  F7132  1  0.83601321  0.66692344  0.56397863  1.0
  F  F7133  1  0.83601321  0.74384651  0.56397863  1.0
  F  F7134  1  0.83601321  0.82076959  0.56397863  1.0
  F  F7135  1  0.83601321  0.89769267  0.56397863  1.0
  F  F7136  1  0.83601321  0.97461574  0.56397863  1.0
  F  F7137  1  0.92692230  0.05153882  0.56397863  1.0
  F  F7138  1  0.92692230  0.12846190  0.56397863  1.0
  F  F7139  1  0.92692230  0.20538497  0.56397863  1.0
  F  F7140  1  0.92692230  0.28230805  0.56397863  1.0
  F  F7141  1  0.92692230  0.35923113  0.56397863  1.0
  F  F7142  1  0.92692230  0.43615420  0.56397863  1.0
  F  F7143  1  0.92692230  0.51307728  0.56397863  1.0
  F  F7144  1  0.92692230  0.59000036  0.56397863  1.0
  F  F7145  1  0.92692230  0.66692344  0.56397863  1.0
  F  F7146  1  0.92692230  0.74384651  0.56397863  1.0
  F  F7147  1  0.92692230  0.82076959  0.56397863  1.0
  F  F7148  1  0.92692230  0.89769267  0.56397863  1.0
  F  F7149  1  0.92692230  0.97461574  0.56397863  1.0
  F  F7150  1  0.04813442  0.00025677  0.43064530  1.0
  F  F7151  1  0.04813442  0.07717985  0.43064530  1.0
  F  F7152  1  0.04813442  0.15410292  0.43064530  1.0
  F  F7153  1  0.04813442  0.23102600  0.43064530  1.0
  F  F7154  1  0.04813442  0.30794908  0.43064530  1.0
  F  F7155  1  0.04813442  0.38487215  0.43064530  1.0
  F  F7156  1  0.04813442  0.46179523  0.43064530  1.0
  F  F7157  1  0.04813442  0.53871831  0.43064530  1.0
  F  F7158  1  0.04813442  0.61564138  0.43064530  1.0
  F  F7159  1  0.04813442  0.69256446  0.43064530  1.0
  F  F7160  1  0.04813442  0.76948754  0.43064530  1.0
  F  F7161  1  0.04813442  0.84641061  0.43064530  1.0
  F  F7162  1  0.04813442  0.92333369  0.43064530  1.0
  F  F7163  1  0.13904351  0.00025677  0.43064530  1.0
  F  F7164  1  0.13904351  0.07717985  0.43064530  1.0
  F  F7165  1  0.13904351  0.15410292  0.43064530  1.0
  F  F7166  1  0.13904351  0.23102600  0.43064530  1.0
  F  F7167  1  0.13904351  0.30794908  0.43064530  1.0
  F  F7168  1  0.13904351  0.38487215  0.43064530  1.0
  F  F7169  1  0.13904351  0.46179523  0.43064530  1.0
  F  F7170  1  0.13904351  0.53871831  0.43064530  1.0
  F  F7171  1  0.13904351  0.61564138  0.43064530  1.0
  F  F7172  1  0.13904351  0.69256446  0.43064530  1.0
  F  F7173  1  0.13904351  0.76948754  0.43064530  1.0
  F  F7174  1  0.13904351  0.84641061  0.43064530  1.0
  F  F7175  1  0.13904351  0.92333369  0.43064530  1.0
  F  F7176  1  0.22995260  0.00025677  0.43064530  1.0
  F  F7177  1  0.22995260  0.07717985  0.43064530  1.0
  F  F7178  1  0.22995260  0.15410292  0.43064530  1.0
  F  F7179  1  0.22995260  0.23102600  0.43064530  1.0
  F  F7180  1  0.22995260  0.30794908  0.43064530  1.0
  F  F7181  1  0.22995260  0.38487215  0.43064530  1.0
  F  F7182  1  0.22995260  0.46179523  0.43064530  1.0
  F  F7183  1  0.22995260  0.53871831  0.43064530  1.0
  F  F7184  1  0.22995260  0.61564138  0.43064530  1.0
  F  F7185  1  0.22995260  0.69256446  0.43064530  1.0
  F  F7186  1  0.22995260  0.76948754  0.43064530  1.0
  F  F7187  1  0.22995260  0.84641061  0.43064530  1.0
  F  F7188  1  0.22995260  0.92333369  0.43064530  1.0
  F  F7189  1  0.32086170  0.00025677  0.43064530  1.0
  F  F7190  1  0.32086170  0.07717985  0.43064530  1.0
  F  F7191  1  0.32086170  0.15410292  0.43064530  1.0
  F  F7192  1  0.32086170  0.23102600  0.43064530  1.0
  F  F7193  1  0.32086170  0.30794908  0.43064530  1.0
  F  F7194  1  0.32086170  0.38487215  0.43064530  1.0
  F  F7195  1  0.32086170  0.46179523  0.43064530  1.0
  F  F7196  1  0.32086170  0.53871831  0.43064530  1.0
  F  F7197  1  0.32086170  0.61564138  0.43064530  1.0
  F  F7198  1  0.32086170  0.69256446  0.43064530  1.0
  F  F7199  1  0.32086170  0.76948754  0.43064530  1.0
  F  F7200  1  0.32086170  0.84641061  0.43064530  1.0
  F  F7201  1  0.32086170  0.92333369  0.43064530  1.0
  F  F7202  1  0.41177079  0.00025677  0.43064530  1.0
  F  F7203  1  0.41177079  0.07717985  0.43064530  1.0
  F  F7204  1  0.41177079  0.15410292  0.43064530  1.0
  F  F7205  1  0.41177079  0.23102600  0.43064530  1.0
  F  F7206  1  0.41177079  0.30794908  0.43064530  1.0
  F  F7207  1  0.41177079  0.38487215  0.43064530  1.0
  F  F7208  1  0.41177079  0.46179523  0.43064530  1.0
  F  F7209  1  0.41177079  0.53871831  0.43064530  1.0
  F  F7210  1  0.41177079  0.61564138  0.43064530  1.0
  F  F7211  1  0.41177079  0.69256446  0.43064530  1.0
  F  F7212  1  0.41177079  0.76948754  0.43064530  1.0
  F  F7213  1  0.41177079  0.84641061  0.43064530  1.0
  F  F7214  1  0.41177079  0.92333369  0.43064530  1.0
  F  F7215  1  0.50267988  0.00025677  0.43064530  1.0
  F  F7216  1  0.50267988  0.07717985  0.43064530  1.0
  F  F7217  1  0.50267988  0.15410292  0.43064530  1.0
  F  F7218  1  0.50267988  0.23102600  0.43064530  1.0
  F  F7219  1  0.50267988  0.30794908  0.43064530  1.0
  F  F7220  1  0.50267988  0.38487215  0.43064530  1.0
  F  F7221  1  0.50267988  0.46179523  0.43064530  1.0
  F  F7222  1  0.50267988  0.53871831  0.43064530  1.0
  F  F7223  1  0.50267988  0.61564138  0.43064530  1.0
  F  F7224  1  0.50267988  0.69256446  0.43064530  1.0
  F  F7225  1  0.50267988  0.76948754  0.43064530  1.0
  F  F7226  1  0.50267988  0.84641061  0.43064530  1.0
  F  F7227  1  0.50267988  0.92333369  0.43064530  1.0
  F  F7228  1  0.59358897  0.00025677  0.43064530  1.0
  F  F7229  1  0.59358897  0.07717985  0.43064530  1.0
  F  F7230  1  0.59358897  0.15410292  0.43064530  1.0
  F  F7231  1  0.59358897  0.23102600  0.43064530  1.0
  F  F7232  1  0.59358897  0.30794908  0.43064530  1.0
  F  F7233  1  0.59358897  0.38487215  0.43064530  1.0
  F  F7234  1  0.59358897  0.46179523  0.43064530  1.0
  F  F7235  1  0.59358897  0.53871831  0.43064530  1.0
  F  F7236  1  0.59358897  0.61564138  0.43064530  1.0
  F  F7237  1  0.59358897  0.69256446  0.43064530  1.0
  F  F7238  1  0.59358897  0.76948754  0.43064530  1.0
  F  F7239  1  0.59358897  0.84641061  0.43064530  1.0
  F  F7240  1  0.59358897  0.92333369  0.43064530  1.0
  F  F7241  1  0.68449806  0.00025677  0.43064530  1.0
  F  F7242  1  0.68449806  0.07717985  0.43064530  1.0
  F  F7243  1  0.68449806  0.15410292  0.43064530  1.0
  F  F7244  1  0.68449806  0.23102600  0.43064530  1.0
  F  F7245  1  0.68449806  0.30794908  0.43064530  1.0
  F  F7246  1  0.68449806  0.38487215  0.43064530  1.0
  F  F7247  1  0.68449806  0.46179523  0.43064530  1.0
  F  F7248  1  0.68449806  0.53871831  0.43064530  1.0
  F  F7249  1  0.68449806  0.61564138  0.43064530  1.0
  F  F7250  1  0.68449806  0.69256446  0.43064530  1.0
  F  F7251  1  0.68449806  0.76948754  0.43064530  1.0
  F  F7252  1  0.68449806  0.84641061  0.43064530  1.0
  F  F7253  1  0.68449806  0.92333369  0.43064530  1.0
  F  F7254  1  0.77540715  0.00025677  0.43064530  1.0
  F  F7255  1  0.77540715  0.07717985  0.43064530  1.0
  F  F7256  1  0.77540715  0.15410292  0.43064530  1.0
  F  F7257  1  0.77540715  0.23102600  0.43064530  1.0
  F  F7258  1  0.77540715  0.30794908  0.43064530  1.0
  F  F7259  1  0.77540715  0.38487215  0.43064530  1.0
  F  F7260  1  0.77540715  0.46179523  0.43064530  1.0
  F  F7261  1  0.77540715  0.53871831  0.43064530  1.0
  F  F7262  1  0.77540715  0.61564138  0.43064530  1.0
  F  F7263  1  0.77540715  0.69256446  0.43064530  1.0
  F  F7264  1  0.77540715  0.76948754  0.43064530  1.0
  F  F7265  1  0.77540715  0.84641061  0.43064530  1.0
  F  F7266  1  0.77540715  0.92333369  0.43064530  1.0
  F  F7267  1  0.86631624  0.00025677  0.43064530  1.0
  F  F7268  1  0.86631624  0.07717985  0.43064530  1.0
  F  F7269  1  0.86631624  0.15410292  0.43064530  1.0
  F  F7270  1  0.86631624  0.23102600  0.43064530  1.0
  F  F7271  1  0.86631624  0.30794908  0.43064530  1.0
  F  F7272  1  0.86631624  0.38487215  0.43064530  1.0
  F  F7273  1  0.86631624  0.46179523  0.43064530  1.0
  F  F7274  1  0.86631624  0.53871831  0.43064530  1.0
  F  F7275  1  0.86631624  0.61564138  0.43064530  1.0
  F  F7276  1  0.86631624  0.69256446  0.43064530  1.0
  F  F7277  1  0.86631624  0.76948754  0.43064530  1.0
  F  F7278  1  0.86631624  0.84641061  0.43064530  1.0
  F  F7279  1  0.86631624  0.92333369  0.43064530  1.0
  F  F7280  1  0.95722533  0.00025677  0.43064530  1.0
  F  F7281  1  0.95722533  0.07717985  0.43064530  1.0
  F  F7282  1  0.95722533  0.15410292  0.43064530  1.0
  F  F7283  1  0.95722533  0.23102600  0.43064530  1.0
  F  F7284  1  0.95722533  0.30794908  0.43064530  1.0
  F  F7285  1  0.95722533  0.38487215  0.43064530  1.0
  F  F7286  1  0.95722533  0.46179523  0.43064530  1.0
  F  F7287  1  0.95722533  0.53871831  0.43064530  1.0
  F  F7288  1  0.95722533  0.61564138  0.43064530  1.0
  F  F7289  1  0.95722533  0.69256446  0.43064530  1.0
  F  F7290  1  0.95722533  0.76948754  0.43064530  1.0
  F  F7291  1  0.95722533  0.84641061  0.43064530  1.0
  F  F7292  1  0.95722533  0.92333369  0.43064530  1.0
  F  F7293  1  0.05866895  0.01358193  0.66541863  1.0
  F  F7294  1  0.05866895  0.09050500  0.66541863  1.0
  F  F7295  1  0.05866895  0.16742808  0.66541863  1.0
  F  F7296  1  0.05866895  0.24435116  0.66541863  1.0
  F  F7297  1  0.05866895  0.32127423  0.66541863  1.0
  F  F7298  1  0.05866895  0.39819731  0.66541863  1.0
  F  F7299  1  0.05866895  0.47512039  0.66541863  1.0
  F  F7300  1  0.05866895  0.55204346  0.66541863  1.0
  F  F7301  1  0.05866895  0.62896654  0.66541863  1.0
  F  F7302  1  0.05866895  0.70588962  0.66541863  1.0
  F  F7303  1  0.05866895  0.78281270  0.66541863  1.0
  F  F7304  1  0.05866895  0.85973577  0.66541863  1.0
  F  F7305  1  0.05866895  0.93665885  0.66541863  1.0
  F  F7306  1  0.14957804  0.01358193  0.66541863  1.0
  F  F7307  1  0.14957804  0.09050500  0.66541863  1.0
  F  F7308  1  0.14957804  0.16742808  0.66541863  1.0
  F  F7309  1  0.14957804  0.24435116  0.66541863  1.0
  F  F7310  1  0.14957804  0.32127423  0.66541863  1.0
  F  F7311  1  0.14957804  0.39819731  0.66541863  1.0
  F  F7312  1  0.14957804  0.47512039  0.66541863  1.0
  F  F7313  1  0.14957804  0.55204346  0.66541863  1.0
  F  F7314  1  0.14957804  0.62896654  0.66541863  1.0
  F  F7315  1  0.14957804  0.70588962  0.66541863  1.0
  F  F7316  1  0.14957804  0.78281270  0.66541863  1.0
  F  F7317  1  0.14957804  0.85973577  0.66541863  1.0
  F  F7318  1  0.14957804  0.93665885  0.66541863  1.0
  F  F7319  1  0.24048713  0.01358193  0.66541863  1.0
  F  F7320  1  0.24048713  0.09050500  0.66541863  1.0
  F  F7321  1  0.24048713  0.16742808  0.66541863  1.0
  F  F7322  1  0.24048713  0.24435116  0.66541863  1.0
  F  F7323  1  0.24048713  0.32127423  0.66541863  1.0
  F  F7324  1  0.24048713  0.39819731  0.66541863  1.0
  F  F7325  1  0.24048713  0.47512039  0.66541863  1.0
  F  F7326  1  0.24048713  0.55204346  0.66541863  1.0
  F  F7327  1  0.24048713  0.62896654  0.66541863  1.0
  F  F7328  1  0.24048713  0.70588962  0.66541863  1.0
  F  F7329  1  0.24048713  0.78281270  0.66541863  1.0
  F  F7330  1  0.24048713  0.85973577  0.66541863  1.0
  F  F7331  1  0.24048713  0.93665885  0.66541863  1.0
  F  F7332  1  0.33139622  0.01358193  0.66541863  1.0
  F  F7333  1  0.33139622  0.09050500  0.66541863  1.0
  F  F7334  1  0.33139622  0.16742808  0.66541863  1.0
  F  F7335  1  0.33139622  0.24435116  0.66541863  1.0
  F  F7336  1  0.33139622  0.32127423  0.66541863  1.0
  F  F7337  1  0.33139622  0.39819731  0.66541863  1.0
  F  F7338  1  0.33139622  0.47512039  0.66541863  1.0
  F  F7339  1  0.33139622  0.55204346  0.66541863  1.0
  F  F7340  1  0.33139622  0.62896654  0.66541863  1.0
  F  F7341  1  0.33139622  0.70588962  0.66541863  1.0
  F  F7342  1  0.33139622  0.78281270  0.66541863  1.0
  F  F7343  1  0.33139622  0.85973577  0.66541863  1.0
  F  F7344  1  0.33139622  0.93665885  0.66541863  1.0
  F  F7345  1  0.42230531  0.01358193  0.66541863  1.0
  F  F7346  1  0.42230531  0.09050500  0.66541863  1.0
  F  F7347  1  0.42230531  0.16742808  0.66541863  1.0
  F  F7348  1  0.42230531  0.24435116  0.66541863  1.0
  F  F7349  1  0.42230531  0.32127423  0.66541863  1.0
  F  F7350  1  0.42230531  0.39819731  0.66541863  1.0
  F  F7351  1  0.42230531  0.47512039  0.66541863  1.0
  F  F7352  1  0.42230531  0.55204346  0.66541863  1.0
  F  F7353  1  0.42230531  0.62896654  0.66541863  1.0
  F  F7354  1  0.42230531  0.70588962  0.66541863  1.0
  F  F7355  1  0.42230531  0.78281270  0.66541863  1.0
  F  F7356  1  0.42230531  0.85973577  0.66541863  1.0
  F  F7357  1  0.42230531  0.93665885  0.66541863  1.0
  F  F7358  1  0.51321440  0.01358193  0.66541863  1.0
  F  F7359  1  0.51321440  0.09050500  0.66541863  1.0
  F  F7360  1  0.51321440  0.16742808  0.66541863  1.0
  F  F7361  1  0.51321440  0.24435116  0.66541863  1.0
  F  F7362  1  0.51321440  0.32127423  0.66541863  1.0
  F  F7363  1  0.51321440  0.39819731  0.66541863  1.0
  F  F7364  1  0.51321440  0.47512039  0.66541863  1.0
  F  F7365  1  0.51321440  0.55204346  0.66541863  1.0
  F  F7366  1  0.51321440  0.62896654  0.66541863  1.0
  F  F7367  1  0.51321440  0.70588962  0.66541863  1.0
  F  F7368  1  0.51321440  0.78281270  0.66541863  1.0
  F  F7369  1  0.51321440  0.85973577  0.66541863  1.0
  F  F7370  1  0.51321440  0.93665885  0.66541863  1.0
  F  F7371  1  0.60412349  0.01358193  0.66541863  1.0
  F  F7372  1  0.60412349  0.09050500  0.66541863  1.0
  F  F7373  1  0.60412349  0.16742808  0.66541863  1.0
  F  F7374  1  0.60412349  0.24435116  0.66541863  1.0
  F  F7375  1  0.60412349  0.32127423  0.66541863  1.0
  F  F7376  1  0.60412349  0.39819731  0.66541863  1.0
  F  F7377  1  0.60412349  0.47512039  0.66541863  1.0
  F  F7378  1  0.60412349  0.55204346  0.66541863  1.0
  F  F7379  1  0.60412349  0.62896654  0.66541863  1.0
  F  F7380  1  0.60412349  0.70588962  0.66541863  1.0
  F  F7381  1  0.60412349  0.78281270  0.66541863  1.0
  F  F7382  1  0.60412349  0.85973577  0.66541863  1.0
  F  F7383  1  0.60412349  0.93665885  0.66541863  1.0
  F  F7384  1  0.69503259  0.01358193  0.66541863  1.0
  F  F7385  1  0.69503259  0.09050500  0.66541863  1.0
  F  F7386  1  0.69503259  0.16742808  0.66541863  1.0
  F  F7387  1  0.69503259  0.24435116  0.66541863  1.0
  F  F7388  1  0.69503259  0.32127423  0.66541863  1.0
  F  F7389  1  0.69503259  0.39819731  0.66541863  1.0
  F  F7390  1  0.69503259  0.47512039  0.66541863  1.0
  F  F7391  1  0.69503259  0.55204346  0.66541863  1.0
  F  F7392  1  0.69503259  0.62896654  0.66541863  1.0
  F  F7393  1  0.69503259  0.70588962  0.66541863  1.0
  F  F7394  1  0.69503259  0.78281270  0.66541863  1.0
  F  F7395  1  0.69503259  0.85973577  0.66541863  1.0
  F  F7396  1  0.69503259  0.93665885  0.66541863  1.0
  F  F7397  1  0.78594168  0.01358193  0.66541863  1.0
  F  F7398  1  0.78594168  0.09050500  0.66541863  1.0
  F  F7399  1  0.78594168  0.16742808  0.66541863  1.0
  F  F7400  1  0.78594168  0.24435116  0.66541863  1.0
  F  F7401  1  0.78594168  0.32127423  0.66541863  1.0
  F  F7402  1  0.78594168  0.39819731  0.66541863  1.0
  F  F7403  1  0.78594168  0.47512039  0.66541863  1.0
  F  F7404  1  0.78594168  0.55204346  0.66541863  1.0
  F  F7405  1  0.78594168  0.62896654  0.66541863  1.0
  F  F7406  1  0.78594168  0.70588962  0.66541863  1.0
  F  F7407  1  0.78594168  0.78281270  0.66541863  1.0
  F  F7408  1  0.78594168  0.85973577  0.66541863  1.0
  F  F7409  1  0.78594168  0.93665885  0.66541863  1.0
  F  F7410  1  0.87685077  0.01358193  0.66541863  1.0
  F  F7411  1  0.87685077  0.09050500  0.66541863  1.0
  F  F7412  1  0.87685077  0.16742808  0.66541863  1.0
  F  F7413  1  0.87685077  0.24435116  0.66541863  1.0
  F  F7414  1  0.87685077  0.32127423  0.66541863  1.0
  F  F7415  1  0.87685077  0.39819731  0.66541863  1.0
  F  F7416  1  0.87685077  0.47512039  0.66541863  1.0
  F  F7417  1  0.87685077  0.55204346  0.66541863  1.0
  F  F7418  1  0.87685077  0.62896654  0.66541863  1.0
  F  F7419  1  0.87685077  0.70588962  0.66541863  1.0
  F  F7420  1  0.87685077  0.78281270  0.66541863  1.0
  F  F7421  1  0.87685077  0.85973577  0.66541863  1.0
  F  F7422  1  0.87685077  0.93665885  0.66541863  1.0
  F  F7423  1  0.96775986  0.01358193  0.66541863  1.0
  F  F7424  1  0.96775986  0.09050500  0.66541863  1.0
  F  F7425  1  0.96775986  0.16742808  0.66541863  1.0
  F  F7426  1  0.96775986  0.24435116  0.66541863  1.0
  F  F7427  1  0.96775986  0.32127423  0.66541863  1.0
  F  F7428  1  0.96775986  0.39819731  0.66541863  1.0
  F  F7429  1  0.96775986  0.47512039  0.66541863  1.0
  F  F7430  1  0.96775986  0.55204346  0.66541863  1.0
  F  F7431  1  0.96775986  0.62896654  0.66541863  1.0
  F  F7432  1  0.96775986  0.70588962  0.66541863  1.0
  F  F7433  1  0.96775986  0.78281270  0.66541863  1.0
  F  F7434  1  0.96775986  0.85973577  0.66541863  1.0
  F  F7435  1  0.96775986  0.93665885  0.66541863  1.0
  F  F7436  1  0.08897198  0.03922295  0.73208529  1.0
  F  F7437  1  0.08897198  0.11614603  0.73208529  1.0
  F  F7438  1  0.08897198  0.19306911  0.73208529  1.0
  F  F7439  1  0.08897198  0.26999218  0.73208529  1.0
  F  F7440  1  0.08897198  0.34691526  0.73208529  1.0
  F  F7441  1  0.08897198  0.42383834  0.73208529  1.0
  F  F7442  1  0.08897198  0.50076141  0.73208529  1.0
  F  F7443  1  0.08897198  0.57768449  0.73208529  1.0
  F  F7444  1  0.08897198  0.65460757  0.73208529  1.0
  F  F7445  1  0.08897198  0.73153064  0.73208529  1.0
  F  F7446  1  0.08897198  0.80845372  0.73208529  1.0
  F  F7447  1  0.08897198  0.88537680  0.73208529  1.0
  F  F7448  1  0.08897198  0.96229988  0.73208529  1.0
  F  F7449  1  0.17988107  0.03922295  0.73208529  1.0
  F  F7450  1  0.17988107  0.11614603  0.73208529  1.0
  F  F7451  1  0.17988107  0.19306911  0.73208529  1.0
  F  F7452  1  0.17988107  0.26999218  0.73208529  1.0
  F  F7453  1  0.17988107  0.34691526  0.73208529  1.0
  F  F7454  1  0.17988107  0.42383834  0.73208529  1.0
  F  F7455  1  0.17988107  0.50076141  0.73208529  1.0
  F  F7456  1  0.17988107  0.57768449  0.73208529  1.0
  F  F7457  1  0.17988107  0.65460757  0.73208529  1.0
  F  F7458  1  0.17988107  0.73153064  0.73208529  1.0
  F  F7459  1  0.17988107  0.80845372  0.73208529  1.0
  F  F7460  1  0.17988107  0.88537680  0.73208529  1.0
  F  F7461  1  0.17988107  0.96229988  0.73208529  1.0
  F  F7462  1  0.27079016  0.03922295  0.73208529  1.0
  F  F7463  1  0.27079016  0.11614603  0.73208529  1.0
  F  F7464  1  0.27079016  0.19306911  0.73208529  1.0
  F  F7465  1  0.27079016  0.26999218  0.73208529  1.0
  F  F7466  1  0.27079016  0.34691526  0.73208529  1.0
  F  F7467  1  0.27079016  0.42383834  0.73208529  1.0
  F  F7468  1  0.27079016  0.50076141  0.73208529  1.0
  F  F7469  1  0.27079016  0.57768449  0.73208529  1.0
  F  F7470  1  0.27079016  0.65460757  0.73208529  1.0
  F  F7471  1  0.27079016  0.73153064  0.73208529  1.0
  F  F7472  1  0.27079016  0.80845372  0.73208529  1.0
  F  F7473  1  0.27079016  0.88537680  0.73208529  1.0
  F  F7474  1  0.27079016  0.96229988  0.73208529  1.0
  F  F7475  1  0.36169925  0.03922295  0.73208529  1.0
  F  F7476  1  0.36169925  0.11614603  0.73208529  1.0
  F  F7477  1  0.36169925  0.19306911  0.73208529  1.0
  F  F7478  1  0.36169925  0.26999218  0.73208529  1.0
  F  F7479  1  0.36169925  0.34691526  0.73208529  1.0
  F  F7480  1  0.36169925  0.42383834  0.73208529  1.0
  F  F7481  1  0.36169925  0.50076141  0.73208529  1.0
  F  F7482  1  0.36169925  0.57768449  0.73208529  1.0
  F  F7483  1  0.36169925  0.65460757  0.73208529  1.0
  F  F7484  1  0.36169925  0.73153064  0.73208529  1.0
  F  F7485  1  0.36169925  0.80845372  0.73208529  1.0
  F  F7486  1  0.36169925  0.88537680  0.73208529  1.0
  F  F7487  1  0.36169925  0.96229988  0.73208529  1.0
  F  F7488  1  0.45260834  0.03922295  0.73208529  1.0
  F  F7489  1  0.45260834  0.11614603  0.73208529  1.0
  F  F7490  1  0.45260834  0.19306911  0.73208529  1.0
  F  F7491  1  0.45260834  0.26999218  0.73208529  1.0
  F  F7492  1  0.45260834  0.34691526  0.73208529  1.0
  F  F7493  1  0.45260834  0.42383834  0.73208529  1.0
  F  F7494  1  0.45260834  0.50076141  0.73208529  1.0
  F  F7495  1  0.45260834  0.57768449  0.73208529  1.0
  F  F7496  1  0.45260834  0.65460757  0.73208529  1.0
  F  F7497  1  0.45260834  0.73153064  0.73208529  1.0
  F  F7498  1  0.45260834  0.80845372  0.73208529  1.0
  F  F7499  1  0.45260834  0.88537680  0.73208529  1.0
  F  F7500  1  0.45260834  0.96229988  0.73208529  1.0
  F  F7501  1  0.54351743  0.03922295  0.73208529  1.0
  F  F7502  1  0.54351743  0.11614603  0.73208529  1.0
  F  F7503  1  0.54351743  0.19306911  0.73208529  1.0
  F  F7504  1  0.54351743  0.26999218  0.73208529  1.0
  F  F7505  1  0.54351743  0.34691526  0.73208529  1.0
  F  F7506  1  0.54351743  0.42383834  0.73208529  1.0
  F  F7507  1  0.54351743  0.50076141  0.73208529  1.0
  F  F7508  1  0.54351743  0.57768449  0.73208529  1.0
  F  F7509  1  0.54351743  0.65460757  0.73208529  1.0
  F  F7510  1  0.54351743  0.73153064  0.73208529  1.0
  F  F7511  1  0.54351743  0.80845372  0.73208529  1.0
  F  F7512  1  0.54351743  0.88537680  0.73208529  1.0
  F  F7513  1  0.54351743  0.96229988  0.73208529  1.0
  F  F7514  1  0.63442653  0.03922295  0.73208529  1.0
  F  F7515  1  0.63442653  0.11614603  0.73208529  1.0
  F  F7516  1  0.63442653  0.19306911  0.73208529  1.0
  F  F7517  1  0.63442653  0.26999218  0.73208529  1.0
  F  F7518  1  0.63442653  0.34691526  0.73208529  1.0
  F  F7519  1  0.63442653  0.42383834  0.73208529  1.0
  F  F7520  1  0.63442653  0.50076141  0.73208529  1.0
  F  F7521  1  0.63442653  0.57768449  0.73208529  1.0
  F  F7522  1  0.63442653  0.65460757  0.73208529  1.0
  F  F7523  1  0.63442653  0.73153064  0.73208529  1.0
  F  F7524  1  0.63442653  0.80845372  0.73208529  1.0
  F  F7525  1  0.63442653  0.88537680  0.73208529  1.0
  F  F7526  1  0.63442653  0.96229988  0.73208529  1.0
  F  F7527  1  0.72533562  0.03922295  0.73208529  1.0
  F  F7528  1  0.72533562  0.11614603  0.73208529  1.0
  F  F7529  1  0.72533562  0.19306911  0.73208529  1.0
  F  F7530  1  0.72533562  0.26999218  0.73208529  1.0
  F  F7531  1  0.72533562  0.34691526  0.73208529  1.0
  F  F7532  1  0.72533562  0.42383834  0.73208529  1.0
  F  F7533  1  0.72533562  0.50076141  0.73208529  1.0
  F  F7534  1  0.72533562  0.57768449  0.73208529  1.0
  F  F7535  1  0.72533562  0.65460757  0.73208529  1.0
  F  F7536  1  0.72533562  0.73153064  0.73208529  1.0
  F  F7537  1  0.72533562  0.80845372  0.73208529  1.0
  F  F7538  1  0.72533562  0.88537680  0.73208529  1.0
  F  F7539  1  0.72533562  0.96229988  0.73208529  1.0
  F  F7540  1  0.81624471  0.03922295  0.73208529  1.0
  F  F7541  1  0.81624471  0.11614603  0.73208529  1.0
  F  F7542  1  0.81624471  0.19306911  0.73208529  1.0
  F  F7543  1  0.81624471  0.26999218  0.73208529  1.0
  F  F7544  1  0.81624471  0.34691526  0.73208529  1.0
  F  F7545  1  0.81624471  0.42383834  0.73208529  1.0
  F  F7546  1  0.81624471  0.50076141  0.73208529  1.0
  F  F7547  1  0.81624471  0.57768449  0.73208529  1.0
  F  F7548  1  0.81624471  0.65460757  0.73208529  1.0
  F  F7549  1  0.81624471  0.73153064  0.73208529  1.0
  F  F7550  1  0.81624471  0.80845372  0.73208529  1.0
  F  F7551  1  0.81624471  0.88537680  0.73208529  1.0
  F  F7552  1  0.81624471  0.96229988  0.73208529  1.0
  F  F7553  1  0.90715380  0.03922295  0.73208529  1.0
  F  F7554  1  0.90715380  0.11614603  0.73208529  1.0
  F  F7555  1  0.90715380  0.19306911  0.73208529  1.0
  F  F7556  1  0.90715380  0.26999218  0.73208529  1.0
  F  F7557  1  0.90715380  0.34691526  0.73208529  1.0
  F  F7558  1  0.90715380  0.42383834  0.73208529  1.0
  F  F7559  1  0.90715380  0.50076141  0.73208529  1.0
  F  F7560  1  0.90715380  0.57768449  0.73208529  1.0
  F  F7561  1  0.90715380  0.65460757  0.73208529  1.0
  F  F7562  1  0.90715380  0.73153064  0.73208529  1.0
  F  F7563  1  0.90715380  0.80845372  0.73208529  1.0
  F  F7564  1  0.90715380  0.88537680  0.73208529  1.0
  F  F7565  1  0.90715380  0.96229988  0.73208529  1.0
  F  F7566  1  0.99806289  0.03922295  0.73208529  1.0
  F  F7567  1  0.99806289  0.11614603  0.73208529  1.0
  F  F7568  1  0.99806289  0.19306911  0.73208529  1.0
  F  F7569  1  0.99806289  0.26999218  0.73208529  1.0
  F  F7570  1  0.99806289  0.34691526  0.73208529  1.0
  F  F7571  1  0.99806289  0.42383834  0.73208529  1.0
  F  F7572  1  0.99806289  0.50076141  0.73208529  1.0
  F  F7573  1  0.99806289  0.57768449  0.73208529  1.0
  F  F7574  1  0.99806289  0.65460757  0.73208529  1.0
  F  F7575  1  0.99806289  0.73153064  0.73208529  1.0
  F  F7576  1  0.99806289  0.80845372  0.73208529  1.0
  F  F7577  1  0.99806289  0.88537680  0.73208529  1.0
  F  F7578  1  0.99806289  0.96229988  0.73208529  1.0
  F  F7579  1  0.02836592  0.06486398  0.59875196  1.0
  F  F7580  1  0.02836592  0.14178705  0.59875196  1.0
  F  F7581  1  0.02836592  0.21871013  0.59875196  1.0
  F  F7582  1  0.02836592  0.29563321  0.59875196  1.0
  F  F7583  1  0.02836592  0.37255629  0.59875196  1.0
  F  F7584  1  0.02836592  0.44947936  0.59875196  1.0
  F  F7585  1  0.02836592  0.52640244  0.59875196  1.0
  F  F7586  1  0.02836592  0.60332552  0.59875196  1.0
  F  F7587  1  0.02836592  0.68024859  0.59875196  1.0
  F  F7588  1  0.02836592  0.75717167  0.59875196  1.0
  F  F7589  1  0.02836592  0.83409475  0.59875196  1.0
  F  F7590  1  0.02836592  0.91101782  0.59875196  1.0
  F  F7591  1  0.02836592  0.98794090  0.59875196  1.0
  F  F7592  1  0.11927501  0.06486398  0.59875196  1.0
  F  F7593  1  0.11927501  0.14178705  0.59875196  1.0
  F  F7594  1  0.11927501  0.21871013  0.59875196  1.0
  F  F7595  1  0.11927501  0.29563321  0.59875196  1.0
  F  F7596  1  0.11927501  0.37255629  0.59875196  1.0
  F  F7597  1  0.11927501  0.44947936  0.59875196  1.0
  F  F7598  1  0.11927501  0.52640244  0.59875196  1.0
  F  F7599  1  0.11927501  0.60332552  0.59875196  1.0
  F  F7600  1  0.11927501  0.68024859  0.59875196  1.0
  F  F7601  1  0.11927501  0.75717167  0.59875196  1.0
  F  F7602  1  0.11927501  0.83409475  0.59875196  1.0
  F  F7603  1  0.11927501  0.91101782  0.59875196  1.0
  F  F7604  1  0.11927501  0.98794090  0.59875196  1.0
  F  F7605  1  0.21018410  0.06486398  0.59875196  1.0
  F  F7606  1  0.21018410  0.14178705  0.59875196  1.0
  F  F7607  1  0.21018410  0.21871013  0.59875196  1.0
  F  F7608  1  0.21018410  0.29563321  0.59875196  1.0
  F  F7609  1  0.21018410  0.37255629  0.59875196  1.0
  F  F7610  1  0.21018410  0.44947936  0.59875196  1.0
  F  F7611  1  0.21018410  0.52640244  0.59875196  1.0
  F  F7612  1  0.21018410  0.60332552  0.59875196  1.0
  F  F7613  1  0.21018410  0.68024859  0.59875196  1.0
  F  F7614  1  0.21018410  0.75717167  0.59875196  1.0
  F  F7615  1  0.21018410  0.83409475  0.59875196  1.0
  F  F7616  1  0.21018410  0.91101782  0.59875196  1.0
  F  F7617  1  0.21018410  0.98794090  0.59875196  1.0
  F  F7618  1  0.30109319  0.06486398  0.59875196  1.0
  F  F7619  1  0.30109319  0.14178705  0.59875196  1.0
  F  F7620  1  0.30109319  0.21871013  0.59875196  1.0
  F  F7621  1  0.30109319  0.29563321  0.59875196  1.0
  F  F7622  1  0.30109319  0.37255629  0.59875196  1.0
  F  F7623  1  0.30109319  0.44947936  0.59875196  1.0
  F  F7624  1  0.30109319  0.52640244  0.59875196  1.0
  F  F7625  1  0.30109319  0.60332552  0.59875196  1.0
  F  F7626  1  0.30109319  0.68024859  0.59875196  1.0
  F  F7627  1  0.30109319  0.75717167  0.59875196  1.0
  F  F7628  1  0.30109319  0.83409475  0.59875196  1.0
  F  F7629  1  0.30109319  0.91101782  0.59875196  1.0
  F  F7630  1  0.30109319  0.98794090  0.59875196  1.0
  F  F7631  1  0.39200228  0.06486398  0.59875196  1.0
  F  F7632  1  0.39200228  0.14178705  0.59875196  1.0
  F  F7633  1  0.39200228  0.21871013  0.59875196  1.0
  F  F7634  1  0.39200228  0.29563321  0.59875196  1.0
  F  F7635  1  0.39200228  0.37255629  0.59875196  1.0
  F  F7636  1  0.39200228  0.44947936  0.59875196  1.0
  F  F7637  1  0.39200228  0.52640244  0.59875196  1.0
  F  F7638  1  0.39200228  0.60332552  0.59875196  1.0
  F  F7639  1  0.39200228  0.68024859  0.59875196  1.0
  F  F7640  1  0.39200228  0.75717167  0.59875196  1.0
  F  F7641  1  0.39200228  0.83409475  0.59875196  1.0
  F  F7642  1  0.39200228  0.91101782  0.59875196  1.0
  F  F7643  1  0.39200228  0.98794090  0.59875196  1.0
  F  F7644  1  0.48291137  0.06486398  0.59875196  1.0
  F  F7645  1  0.48291137  0.14178705  0.59875196  1.0
  F  F7646  1  0.48291137  0.21871013  0.59875196  1.0
  F  F7647  1  0.48291137  0.29563321  0.59875196  1.0
  F  F7648  1  0.48291137  0.37255629  0.59875196  1.0
  F  F7649  1  0.48291137  0.44947936  0.59875196  1.0
  F  F7650  1  0.48291137  0.52640244  0.59875196  1.0
  F  F7651  1  0.48291137  0.60332552  0.59875196  1.0
  F  F7652  1  0.48291137  0.68024859  0.59875196  1.0
  F  F7653  1  0.48291137  0.75717167  0.59875196  1.0
  F  F7654  1  0.48291137  0.83409475  0.59875196  1.0
  F  F7655  1  0.48291137  0.91101782  0.59875196  1.0
  F  F7656  1  0.48291137  0.98794090  0.59875196  1.0
  F  F7657  1  0.57382046  0.06486398  0.59875196  1.0
  F  F7658  1  0.57382046  0.14178705  0.59875196  1.0
  F  F7659  1  0.57382046  0.21871013  0.59875196  1.0
  F  F7660  1  0.57382046  0.29563321  0.59875196  1.0
  F  F7661  1  0.57382046  0.37255629  0.59875196  1.0
  F  F7662  1  0.57382046  0.44947936  0.59875196  1.0
  F  F7663  1  0.57382046  0.52640244  0.59875196  1.0
  F  F7664  1  0.57382046  0.60332552  0.59875196  1.0
  F  F7665  1  0.57382046  0.68024859  0.59875196  1.0
  F  F7666  1  0.57382046  0.75717167  0.59875196  1.0
  F  F7667  1  0.57382046  0.83409475  0.59875196  1.0
  F  F7668  1  0.57382046  0.91101782  0.59875196  1.0
  F  F7669  1  0.57382046  0.98794090  0.59875196  1.0
  F  F7670  1  0.66472956  0.06486398  0.59875196  1.0
  F  F7671  1  0.66472956  0.14178705  0.59875196  1.0
  F  F7672  1  0.66472956  0.21871013  0.59875196  1.0
  F  F7673  1  0.66472956  0.29563321  0.59875196  1.0
  F  F7674  1  0.66472956  0.37255629  0.59875196  1.0
  F  F7675  1  0.66472956  0.44947936  0.59875196  1.0
  F  F7676  1  0.66472956  0.52640244  0.59875196  1.0
  F  F7677  1  0.66472956  0.60332552  0.59875196  1.0
  F  F7678  1  0.66472956  0.68024859  0.59875196  1.0
  F  F7679  1  0.66472956  0.75717167  0.59875196  1.0
  F  F7680  1  0.66472956  0.83409475  0.59875196  1.0
  F  F7681  1  0.66472956  0.91101782  0.59875196  1.0
  F  F7682  1  0.66472956  0.98794090  0.59875196  1.0
  F  F7683  1  0.75563865  0.06486398  0.59875196  1.0
  F  F7684  1  0.75563865  0.14178705  0.59875196  1.0
  F  F7685  1  0.75563865  0.21871013  0.59875196  1.0
  F  F7686  1  0.75563865  0.29563321  0.59875196  1.0
  F  F7687  1  0.75563865  0.37255629  0.59875196  1.0
  F  F7688  1  0.75563865  0.44947936  0.59875196  1.0
  F  F7689  1  0.75563865  0.52640244  0.59875196  1.0
  F  F7690  1  0.75563865  0.60332552  0.59875196  1.0
  F  F7691  1  0.75563865  0.68024859  0.59875196  1.0
  F  F7692  1  0.75563865  0.75717167  0.59875196  1.0
  F  F7693  1  0.75563865  0.83409475  0.59875196  1.0
  F  F7694  1  0.75563865  0.91101782  0.59875196  1.0
  F  F7695  1  0.75563865  0.98794090  0.59875196  1.0
  F  F7696  1  0.84654774  0.06486398  0.59875196  1.0
  F  F7697  1  0.84654774  0.14178705  0.59875196  1.0
  F  F7698  1  0.84654774  0.21871013  0.59875196  1.0
  F  F7699  1  0.84654774  0.29563321  0.59875196  1.0
  F  F7700  1  0.84654774  0.37255629  0.59875196  1.0
  F  F7701  1  0.84654774  0.44947936  0.59875196  1.0
  F  F7702  1  0.84654774  0.52640244  0.59875196  1.0
  F  F7703  1  0.84654774  0.60332552  0.59875196  1.0
  F  F7704  1  0.84654774  0.68024859  0.59875196  1.0
  F  F7705  1  0.84654774  0.75717167  0.59875196  1.0
  F  F7706  1  0.84654774  0.83409475  0.59875196  1.0
  F  F7707  1  0.84654774  0.91101782  0.59875196  1.0
  F  F7708  1  0.84654774  0.98794090  0.59875196  1.0
  F  F7709  1  0.93745683  0.06486398  0.59875196  1.0
  F  F7710  1  0.93745683  0.14178705  0.59875196  1.0
  F  F7711  1  0.93745683  0.21871013  0.59875196  1.0
  F  F7712  1  0.93745683  0.29563321  0.59875196  1.0
  F  F7713  1  0.93745683  0.37255629  0.59875196  1.0
  F  F7714  1  0.93745683  0.44947936  0.59875196  1.0
  F  F7715  1  0.93745683  0.52640244  0.59875196  1.0
  F  F7716  1  0.93745683  0.60332552  0.59875196  1.0
  F  F7717  1  0.93745683  0.68024859  0.59875196  1.0
  F  F7718  1  0.93745683  0.75717167  0.59875196  1.0
  F  F7719  1  0.93745683  0.83409475  0.59875196  1.0
  F  F7720  1  0.93745683  0.91101782  0.59875196  1.0
  F  F7721  1  0.93745683  0.98794090  0.59875196  1.0
  F  F7722  1  0.07696289  0.06508707  0.69867924  1.0
  F  F7723  1  0.07696289  0.14201014  0.69867924  1.0
  F  F7724  1  0.07696289  0.21893322  0.69867924  1.0
  F  F7725  1  0.07696289  0.29585630  0.69867924  1.0
  F  F7726  1  0.07696289  0.37277938  0.69867924  1.0
  F  F7727  1  0.07696289  0.44970245  0.69867924  1.0
  F  F7728  1  0.07696289  0.52662553  0.69867924  1.0
  F  F7729  1  0.07696289  0.60354861  0.69867924  1.0
  F  F7730  1  0.07696289  0.68047168  0.69867924  1.0
  F  F7731  1  0.07696289  0.75739476  0.69867924  1.0
  F  F7732  1  0.07696289  0.83431784  0.69867924  1.0
  F  F7733  1  0.07696289  0.91124091  0.69867924  1.0
  F  F7734  1  0.07696289  0.98816399  0.69867924  1.0
  F  F7735  1  0.16787198  0.06508707  0.69867924  1.0
  F  F7736  1  0.16787198  0.14201014  0.69867924  1.0
  F  F7737  1  0.16787198  0.21893322  0.69867924  1.0
  F  F7738  1  0.16787198  0.29585630  0.69867924  1.0
  F  F7739  1  0.16787198  0.37277938  0.69867924  1.0
  F  F7740  1  0.16787198  0.44970245  0.69867924  1.0
  F  F7741  1  0.16787198  0.52662553  0.69867924  1.0
  F  F7742  1  0.16787198  0.60354861  0.69867924  1.0
  F  F7743  1  0.16787198  0.68047168  0.69867924  1.0
  F  F7744  1  0.16787198  0.75739476  0.69867924  1.0
  F  F7745  1  0.16787198  0.83431784  0.69867924  1.0
  F  F7746  1  0.16787198  0.91124091  0.69867924  1.0
  F  F7747  1  0.16787198  0.98816399  0.69867924  1.0
  F  F7748  1  0.25878107  0.06508707  0.69867924  1.0
  F  F7749  1  0.25878107  0.14201014  0.69867924  1.0
  F  F7750  1  0.25878107  0.21893322  0.69867924  1.0
  F  F7751  1  0.25878107  0.29585630  0.69867924  1.0
  F  F7752  1  0.25878107  0.37277938  0.69867924  1.0
  F  F7753  1  0.25878107  0.44970245  0.69867924  1.0
  F  F7754  1  0.25878107  0.52662553  0.69867924  1.0
  F  F7755  1  0.25878107  0.60354861  0.69867924  1.0
  F  F7756  1  0.25878107  0.68047168  0.69867924  1.0
  F  F7757  1  0.25878107  0.75739476  0.69867924  1.0
  F  F7758  1  0.25878107  0.83431784  0.69867924  1.0
  F  F7759  1  0.25878107  0.91124091  0.69867924  1.0
  F  F7760  1  0.25878107  0.98816399  0.69867924  1.0
  F  F7761  1  0.34969016  0.06508707  0.69867924  1.0
  F  F7762  1  0.34969016  0.14201014  0.69867924  1.0
  F  F7763  1  0.34969016  0.21893322  0.69867924  1.0
  F  F7764  1  0.34969016  0.29585630  0.69867924  1.0
  F  F7765  1  0.34969016  0.37277938  0.69867924  1.0
  F  F7766  1  0.34969016  0.44970245  0.69867924  1.0
  F  F7767  1  0.34969016  0.52662553  0.69867924  1.0
  F  F7768  1  0.34969016  0.60354861  0.69867924  1.0
  F  F7769  1  0.34969016  0.68047168  0.69867924  1.0
  F  F7770  1  0.34969016  0.75739476  0.69867924  1.0
  F  F7771  1  0.34969016  0.83431784  0.69867924  1.0
  F  F7772  1  0.34969016  0.91124091  0.69867924  1.0
  F  F7773  1  0.34969016  0.98816399  0.69867924  1.0
  F  F7774  1  0.44059925  0.06508707  0.69867924  1.0
  F  F7775  1  0.44059925  0.14201014  0.69867924  1.0
  F  F7776  1  0.44059925  0.21893322  0.69867924  1.0
  F  F7777  1  0.44059925  0.29585630  0.69867924  1.0
  F  F7778  1  0.44059925  0.37277938  0.69867924  1.0
  F  F7779  1  0.44059925  0.44970245  0.69867924  1.0
  F  F7780  1  0.44059925  0.52662553  0.69867924  1.0
  F  F7781  1  0.44059925  0.60354861  0.69867924  1.0
  F  F7782  1  0.44059925  0.68047168  0.69867924  1.0
  F  F7783  1  0.44059925  0.75739476  0.69867924  1.0
  F  F7784  1  0.44059925  0.83431784  0.69867924  1.0
  F  F7785  1  0.44059925  0.91124091  0.69867924  1.0
  F  F7786  1  0.44059925  0.98816399  0.69867924  1.0
  F  F7787  1  0.53150834  0.06508707  0.69867924  1.0
  F  F7788  1  0.53150834  0.14201014  0.69867924  1.0
  F  F7789  1  0.53150834  0.21893322  0.69867924  1.0
  F  F7790  1  0.53150834  0.29585630  0.69867924  1.0
  F  F7791  1  0.53150834  0.37277938  0.69867924  1.0
  F  F7792  1  0.53150834  0.44970245  0.69867924  1.0
  F  F7793  1  0.53150834  0.52662553  0.69867924  1.0
  F  F7794  1  0.53150834  0.60354861  0.69867924  1.0
  F  F7795  1  0.53150834  0.68047168  0.69867924  1.0
  F  F7796  1  0.53150834  0.75739476  0.69867924  1.0
  F  F7797  1  0.53150834  0.83431784  0.69867924  1.0
  F  F7798  1  0.53150834  0.91124091  0.69867924  1.0
  F  F7799  1  0.53150834  0.98816399  0.69867924  1.0
  F  F7800  1  0.62241744  0.06508707  0.69867924  1.0
  F  F7801  1  0.62241744  0.14201014  0.69867924  1.0
  F  F7802  1  0.62241744  0.21893322  0.69867924  1.0
  F  F7803  1  0.62241744  0.29585630  0.69867924  1.0
  F  F7804  1  0.62241744  0.37277938  0.69867924  1.0
  F  F7805  1  0.62241744  0.44970245  0.69867924  1.0
  F  F7806  1  0.62241744  0.52662553  0.69867924  1.0
  F  F7807  1  0.62241744  0.60354861  0.69867924  1.0
  F  F7808  1  0.62241744  0.68047168  0.69867924  1.0
  F  F7809  1  0.62241744  0.75739476  0.69867924  1.0
  F  F7810  1  0.62241744  0.83431784  0.69867924  1.0
  F  F7811  1  0.62241744  0.91124091  0.69867924  1.0
  F  F7812  1  0.62241744  0.98816399  0.69867924  1.0
  F  F7813  1  0.71332653  0.06508707  0.69867924  1.0
  F  F7814  1  0.71332653  0.14201014  0.69867924  1.0
  F  F7815  1  0.71332653  0.21893322  0.69867924  1.0
  F  F7816  1  0.71332653  0.29585630  0.69867924  1.0
  F  F7817  1  0.71332653  0.37277938  0.69867924  1.0
  F  F7818  1  0.71332653  0.44970245  0.69867924  1.0
  F  F7819  1  0.71332653  0.52662553  0.69867924  1.0
  F  F7820  1  0.71332653  0.60354861  0.69867924  1.0
  F  F7821  1  0.71332653  0.68047168  0.69867924  1.0
  F  F7822  1  0.71332653  0.75739476  0.69867924  1.0
  F  F7823  1  0.71332653  0.83431784  0.69867924  1.0
  F  F7824  1  0.71332653  0.91124091  0.69867924  1.0
  F  F7825  1  0.71332653  0.98816399  0.69867924  1.0
  F  F7826  1  0.80423562  0.06508707  0.69867924  1.0
  F  F7827  1  0.80423562  0.14201014  0.69867924  1.0
  F  F7828  1  0.80423562  0.21893322  0.69867924  1.0
  F  F7829  1  0.80423562  0.29585630  0.69867924  1.0
  F  F7830  1  0.80423562  0.37277938  0.69867924  1.0
  F  F7831  1  0.80423562  0.44970245  0.69867924  1.0
  F  F7832  1  0.80423562  0.52662553  0.69867924  1.0
  F  F7833  1  0.80423562  0.60354861  0.69867924  1.0
  F  F7834  1  0.80423562  0.68047168  0.69867924  1.0
  F  F7835  1  0.80423562  0.75739476  0.69867924  1.0
  F  F7836  1  0.80423562  0.83431784  0.69867924  1.0
  F  F7837  1  0.80423562  0.91124091  0.69867924  1.0
  F  F7838  1  0.80423562  0.98816399  0.69867924  1.0
  F  F7839  1  0.89514471  0.06508707  0.69867924  1.0
  F  F7840  1  0.89514471  0.14201014  0.69867924  1.0
  F  F7841  1  0.89514471  0.21893322  0.69867924  1.0
  F  F7842  1  0.89514471  0.29585630  0.69867924  1.0
  F  F7843  1  0.89514471  0.37277938  0.69867924  1.0
  F  F7844  1  0.89514471  0.44970245  0.69867924  1.0
  F  F7845  1  0.89514471  0.52662553  0.69867924  1.0
  F  F7846  1  0.89514471  0.60354861  0.69867924  1.0
  F  F7847  1  0.89514471  0.68047168  0.69867924  1.0
  F  F7848  1  0.89514471  0.75739476  0.69867924  1.0
  F  F7849  1  0.89514471  0.83431784  0.69867924  1.0
  F  F7850  1  0.89514471  0.91124091  0.69867924  1.0
  F  F7851  1  0.89514471  0.98816399  0.69867924  1.0
  F  F7852  1  0.98605380  0.06508707  0.69867924  1.0
  F  F7853  1  0.98605380  0.14201014  0.69867924  1.0
  F  F7854  1  0.98605380  0.21893322  0.69867924  1.0
  F  F7855  1  0.98605380  0.29585630  0.69867924  1.0
  F  F7856  1  0.98605380  0.37277938  0.69867924  1.0
  F  F7857  1  0.98605380  0.44970245  0.69867924  1.0
  F  F7858  1  0.98605380  0.52662553  0.69867924  1.0
  F  F7859  1  0.98605380  0.60354861  0.69867924  1.0
  F  F7860  1  0.98605380  0.68047168  0.69867924  1.0
  F  F7861  1  0.98605380  0.75739476  0.69867924  1.0
  F  F7862  1  0.98605380  0.83431784  0.69867924  1.0
  F  F7863  1  0.98605380  0.91124091  0.69867924  1.0
  F  F7864  1  0.98605380  0.98816399  0.69867924  1.0
  F  F7865  1  0.01635683  0.01380502  0.76534591  1.0
  F  F7866  1  0.01635683  0.09072809  0.76534591  1.0
  F  F7867  1  0.01635683  0.16765117  0.76534591  1.0
  F  F7868  1  0.01635683  0.24457425  0.76534591  1.0
  F  F7869  1  0.01635683  0.32149732  0.76534591  1.0
  F  F7870  1  0.01635683  0.39842040  0.76534591  1.0
  F  F7871  1  0.01635683  0.47534348  0.76534591  1.0
  F  F7872  1  0.01635683  0.55226655  0.76534591  1.0
  F  F7873  1  0.01635683  0.62918963  0.76534591  1.0
  F  F7874  1  0.01635683  0.70611271  0.76534591  1.0
  F  F7875  1  0.01635683  0.78303579  0.76534591  1.0
  F  F7876  1  0.01635683  0.85995886  0.76534591  1.0
  F  F7877  1  0.01635683  0.93688194  0.76534591  1.0
  F  F7878  1  0.10726592  0.01380502  0.76534591  1.0
  F  F7879  1  0.10726592  0.09072809  0.76534591  1.0
  F  F7880  1  0.10726592  0.16765117  0.76534591  1.0
  F  F7881  1  0.10726592  0.24457425  0.76534591  1.0
  F  F7882  1  0.10726592  0.32149732  0.76534591  1.0
  F  F7883  1  0.10726592  0.39842040  0.76534591  1.0
  F  F7884  1  0.10726592  0.47534348  0.76534591  1.0
  F  F7885  1  0.10726592  0.55226655  0.76534591  1.0
  F  F7886  1  0.10726592  0.62918963  0.76534591  1.0
  F  F7887  1  0.10726592  0.70611271  0.76534591  1.0
  F  F7888  1  0.10726592  0.78303579  0.76534591  1.0
  F  F7889  1  0.10726592  0.85995886  0.76534591  1.0
  F  F7890  1  0.10726592  0.93688194  0.76534591  1.0
  F  F7891  1  0.19817501  0.01380502  0.76534591  1.0
  F  F7892  1  0.19817501  0.09072809  0.76534591  1.0
  F  F7893  1  0.19817501  0.16765117  0.76534591  1.0
  F  F7894  1  0.19817501  0.24457425  0.76534591  1.0
  F  F7895  1  0.19817501  0.32149732  0.76534591  1.0
  F  F7896  1  0.19817501  0.39842040  0.76534591  1.0
  F  F7897  1  0.19817501  0.47534348  0.76534591  1.0
  F  F7898  1  0.19817501  0.55226655  0.76534591  1.0
  F  F7899  1  0.19817501  0.62918963  0.76534591  1.0
  F  F7900  1  0.19817501  0.70611271  0.76534591  1.0
  F  F7901  1  0.19817501  0.78303579  0.76534591  1.0
  F  F7902  1  0.19817501  0.85995886  0.76534591  1.0
  F  F7903  1  0.19817501  0.93688194  0.76534591  1.0
  F  F7904  1  0.28908410  0.01380502  0.76534591  1.0
  F  F7905  1  0.28908410  0.09072809  0.76534591  1.0
  F  F7906  1  0.28908410  0.16765117  0.76534591  1.0
  F  F7907  1  0.28908410  0.24457425  0.76534591  1.0
  F  F7908  1  0.28908410  0.32149732  0.76534591  1.0
  F  F7909  1  0.28908410  0.39842040  0.76534591  1.0
  F  F7910  1  0.28908410  0.47534348  0.76534591  1.0
  F  F7911  1  0.28908410  0.55226655  0.76534591  1.0
  F  F7912  1  0.28908410  0.62918963  0.76534591  1.0
  F  F7913  1  0.28908410  0.70611271  0.76534591  1.0
  F  F7914  1  0.28908410  0.78303579  0.76534591  1.0
  F  F7915  1  0.28908410  0.85995886  0.76534591  1.0
  F  F7916  1  0.28908410  0.93688194  0.76534591  1.0
  F  F7917  1  0.37999319  0.01380502  0.76534591  1.0
  F  F7918  1  0.37999319  0.09072809  0.76534591  1.0
  F  F7919  1  0.37999319  0.16765117  0.76534591  1.0
  F  F7920  1  0.37999319  0.24457425  0.76534591  1.0
  F  F7921  1  0.37999319  0.32149732  0.76534591  1.0
  F  F7922  1  0.37999319  0.39842040  0.76534591  1.0
  F  F7923  1  0.37999319  0.47534348  0.76534591  1.0
  F  F7924  1  0.37999319  0.55226655  0.76534591  1.0
  F  F7925  1  0.37999319  0.62918963  0.76534591  1.0
  F  F7926  1  0.37999319  0.70611271  0.76534591  1.0
  F  F7927  1  0.37999319  0.78303579  0.76534591  1.0
  F  F7928  1  0.37999319  0.85995886  0.76534591  1.0
  F  F7929  1  0.37999319  0.93688194  0.76534591  1.0
  F  F7930  1  0.47090228  0.01380502  0.76534591  1.0
  F  F7931  1  0.47090228  0.09072809  0.76534591  1.0
  F  F7932  1  0.47090228  0.16765117  0.76534591  1.0
  F  F7933  1  0.47090228  0.24457425  0.76534591  1.0
  F  F7934  1  0.47090228  0.32149732  0.76534591  1.0
  F  F7935  1  0.47090228  0.39842040  0.76534591  1.0
  F  F7936  1  0.47090228  0.47534348  0.76534591  1.0
  F  F7937  1  0.47090228  0.55226655  0.76534591  1.0
  F  F7938  1  0.47090228  0.62918963  0.76534591  1.0
  F  F7939  1  0.47090228  0.70611271  0.76534591  1.0
  F  F7940  1  0.47090228  0.78303579  0.76534591  1.0
  F  F7941  1  0.47090228  0.85995886  0.76534591  1.0
  F  F7942  1  0.47090228  0.93688194  0.76534591  1.0
  F  F7943  1  0.56181137  0.01380502  0.76534591  1.0
  F  F7944  1  0.56181137  0.09072809  0.76534591  1.0
  F  F7945  1  0.56181137  0.16765117  0.76534591  1.0
  F  F7946  1  0.56181137  0.24457425  0.76534591  1.0
  F  F7947  1  0.56181137  0.32149732  0.76534591  1.0
  F  F7948  1  0.56181137  0.39842040  0.76534591  1.0
  F  F7949  1  0.56181137  0.47534348  0.76534591  1.0
  F  F7950  1  0.56181137  0.55226655  0.76534591  1.0
  F  F7951  1  0.56181137  0.62918963  0.76534591  1.0
  F  F7952  1  0.56181137  0.70611271  0.76534591  1.0
  F  F7953  1  0.56181137  0.78303579  0.76534591  1.0
  F  F7954  1  0.56181137  0.85995886  0.76534591  1.0
  F  F7955  1  0.56181137  0.93688194  0.76534591  1.0
  F  F7956  1  0.65272047  0.01380502  0.76534591  1.0
  F  F7957  1  0.65272047  0.09072809  0.76534591  1.0
  F  F7958  1  0.65272047  0.16765117  0.76534591  1.0
  F  F7959  1  0.65272047  0.24457425  0.76534591  1.0
  F  F7960  1  0.65272047  0.32149732  0.76534591  1.0
  F  F7961  1  0.65272047  0.39842040  0.76534591  1.0
  F  F7962  1  0.65272047  0.47534348  0.76534591  1.0
  F  F7963  1  0.65272047  0.55226655  0.76534591  1.0
  F  F7964  1  0.65272047  0.62918963  0.76534591  1.0
  F  F7965  1  0.65272047  0.70611271  0.76534591  1.0
  F  F7966  1  0.65272047  0.78303579  0.76534591  1.0
  F  F7967  1  0.65272047  0.85995886  0.76534591  1.0
  F  F7968  1  0.65272047  0.93688194  0.76534591  1.0
  F  F7969  1  0.74362956  0.01380502  0.76534591  1.0
  F  F7970  1  0.74362956  0.09072809  0.76534591  1.0
  F  F7971  1  0.74362956  0.16765117  0.76534591  1.0
  F  F7972  1  0.74362956  0.24457425  0.76534591  1.0
  F  F7973  1  0.74362956  0.32149732  0.76534591  1.0
  F  F7974  1  0.74362956  0.39842040  0.76534591  1.0
  F  F7975  1  0.74362956  0.47534348  0.76534591  1.0
  F  F7976  1  0.74362956  0.55226655  0.76534591  1.0
  F  F7977  1  0.74362956  0.62918963  0.76534591  1.0
  F  F7978  1  0.74362956  0.70611271  0.76534591  1.0
  F  F7979  1  0.74362956  0.78303579  0.76534591  1.0
  F  F7980  1  0.74362956  0.85995886  0.76534591  1.0
  F  F7981  1  0.74362956  0.93688194  0.76534591  1.0
  F  F7982  1  0.83453865  0.01380502  0.76534591  1.0
  F  F7983  1  0.83453865  0.09072809  0.76534591  1.0
  F  F7984  1  0.83453865  0.16765117  0.76534591  1.0
  F  F7985  1  0.83453865  0.24457425  0.76534591  1.0
  F  F7986  1  0.83453865  0.32149732  0.76534591  1.0
  F  F7987  1  0.83453865  0.39842040  0.76534591  1.0
  F  F7988  1  0.83453865  0.47534348  0.76534591  1.0
  F  F7989  1  0.83453865  0.55226655  0.76534591  1.0
  F  F7990  1  0.83453865  0.62918963  0.76534591  1.0
  F  F7991  1  0.83453865  0.70611271  0.76534591  1.0
  F  F7992  1  0.83453865  0.78303579  0.76534591  1.0
  F  F7993  1  0.83453865  0.85995886  0.76534591  1.0
  F  F7994  1  0.83453865  0.93688194  0.76534591  1.0
  F  F7995  1  0.92544774  0.01380502  0.76534591  1.0
  F  F7996  1  0.92544774  0.09072809  0.76534591  1.0
  F  F7997  1  0.92544774  0.16765117  0.76534591  1.0
  F  F7998  1  0.92544774  0.24457425  0.76534591  1.0
  F  F7999  1  0.92544774  0.32149732  0.76534591  1.0
  F  F8000  1  0.92544774  0.39842040  0.76534591  1.0
  F  F8001  1  0.92544774  0.47534348  0.76534591  1.0
  F  F8002  1  0.92544774  0.55226655  0.76534591  1.0
  F  F8003  1  0.92544774  0.62918963  0.76534591  1.0
  F  F8004  1  0.92544774  0.70611271  0.76534591  1.0
  F  F8005  1  0.92544774  0.78303579  0.76534591  1.0
  F  F8006  1  0.92544774  0.85995886  0.76534591  1.0
  F  F8007  1  0.92544774  0.93688194  0.76534591  1.0
  F  F8008  1  0.04665986  0.03944604  0.63201257  1.0
  F  F8009  1  0.04665986  0.11636912  0.63201257  1.0
  F  F8010  1  0.04665986  0.19329220  0.63201257  1.0
  F  F8011  1  0.04665986  0.27021527  0.63201257  1.0
  F  F8012  1  0.04665986  0.34713835  0.63201257  1.0
  F  F8013  1  0.04665986  0.42406143  0.63201257  1.0
  F  F8014  1  0.04665986  0.50098450  0.63201257  1.0
  F  F8015  1  0.04665986  0.57790758  0.63201257  1.0
  F  F8016  1  0.04665986  0.65483066  0.63201257  1.0
  F  F8017  1  0.04665986  0.73175373  0.63201257  1.0
  F  F8018  1  0.04665986  0.80867681  0.63201257  1.0
  F  F8019  1  0.04665986  0.88559989  0.63201257  1.0
  F  F8020  1  0.04665986  0.96252296  0.63201257  1.0
  F  F8021  1  0.13756895  0.03944604  0.63201257  1.0
  F  F8022  1  0.13756895  0.11636912  0.63201257  1.0
  F  F8023  1  0.13756895  0.19329220  0.63201257  1.0
  F  F8024  1  0.13756895  0.27021527  0.63201257  1.0
  F  F8025  1  0.13756895  0.34713835  0.63201257  1.0
  F  F8026  1  0.13756895  0.42406143  0.63201257  1.0
  F  F8027  1  0.13756895  0.50098450  0.63201257  1.0
  F  F8028  1  0.13756895  0.57790758  0.63201257  1.0
  F  F8029  1  0.13756895  0.65483066  0.63201257  1.0
  F  F8030  1  0.13756895  0.73175373  0.63201257  1.0
  F  F8031  1  0.13756895  0.80867681  0.63201257  1.0
  F  F8032  1  0.13756895  0.88559989  0.63201257  1.0
  F  F8033  1  0.13756895  0.96252296  0.63201257  1.0
  F  F8034  1  0.22847804  0.03944604  0.63201257  1.0
  F  F8035  1  0.22847804  0.11636912  0.63201257  1.0
  F  F8036  1  0.22847804  0.19329220  0.63201257  1.0
  F  F8037  1  0.22847804  0.27021527  0.63201257  1.0
  F  F8038  1  0.22847804  0.34713835  0.63201257  1.0
  F  F8039  1  0.22847804  0.42406143  0.63201257  1.0
  F  F8040  1  0.22847804  0.50098450  0.63201257  1.0
  F  F8041  1  0.22847804  0.57790758  0.63201257  1.0
  F  F8042  1  0.22847804  0.65483066  0.63201257  1.0
  F  F8043  1  0.22847804  0.73175373  0.63201257  1.0
  F  F8044  1  0.22847804  0.80867681  0.63201257  1.0
  F  F8045  1  0.22847804  0.88559989  0.63201257  1.0
  F  F8046  1  0.22847804  0.96252296  0.63201257  1.0
  F  F8047  1  0.31938713  0.03944604  0.63201257  1.0
  F  F8048  1  0.31938713  0.11636912  0.63201257  1.0
  F  F8049  1  0.31938713  0.19329220  0.63201257  1.0
  F  F8050  1  0.31938713  0.27021527  0.63201257  1.0
  F  F8051  1  0.31938713  0.34713835  0.63201257  1.0
  F  F8052  1  0.31938713  0.42406143  0.63201257  1.0
  F  F8053  1  0.31938713  0.50098450  0.63201257  1.0
  F  F8054  1  0.31938713  0.57790758  0.63201257  1.0
  F  F8055  1  0.31938713  0.65483066  0.63201257  1.0
  F  F8056  1  0.31938713  0.73175373  0.63201257  1.0
  F  F8057  1  0.31938713  0.80867681  0.63201257  1.0
  F  F8058  1  0.31938713  0.88559989  0.63201257  1.0
  F  F8059  1  0.31938713  0.96252296  0.63201257  1.0
  F  F8060  1  0.41029622  0.03944604  0.63201257  1.0
  F  F8061  1  0.41029622  0.11636912  0.63201257  1.0
  F  F8062  1  0.41029622  0.19329220  0.63201257  1.0
  F  F8063  1  0.41029622  0.27021527  0.63201257  1.0
  F  F8064  1  0.41029622  0.34713835  0.63201257  1.0
  F  F8065  1  0.41029622  0.42406143  0.63201257  1.0
  F  F8066  1  0.41029622  0.50098450  0.63201257  1.0
  F  F8067  1  0.41029622  0.57790758  0.63201257  1.0
  F  F8068  1  0.41029622  0.65483066  0.63201257  1.0
  F  F8069  1  0.41029622  0.73175373  0.63201257  1.0
  F  F8070  1  0.41029622  0.80867681  0.63201257  1.0
  F  F8071  1  0.41029622  0.88559989  0.63201257  1.0
  F  F8072  1  0.41029622  0.96252296  0.63201257  1.0
  F  F8073  1  0.50120531  0.03944604  0.63201257  1.0
  F  F8074  1  0.50120531  0.11636912  0.63201257  1.0
  F  F8075  1  0.50120531  0.19329220  0.63201257  1.0
  F  F8076  1  0.50120531  0.27021527  0.63201257  1.0
  F  F8077  1  0.50120531  0.34713835  0.63201257  1.0
  F  F8078  1  0.50120531  0.42406143  0.63201257  1.0
  F  F8079  1  0.50120531  0.50098450  0.63201257  1.0
  F  F8080  1  0.50120531  0.57790758  0.63201257  1.0
  F  F8081  1  0.50120531  0.65483066  0.63201257  1.0
  F  F8082  1  0.50120531  0.73175373  0.63201257  1.0
  F  F8083  1  0.50120531  0.80867681  0.63201257  1.0
  F  F8084  1  0.50120531  0.88559989  0.63201257  1.0
  F  F8085  1  0.50120531  0.96252296  0.63201257  1.0
  F  F8086  1  0.59211440  0.03944604  0.63201257  1.0
  F  F8087  1  0.59211440  0.11636912  0.63201257  1.0
  F  F8088  1  0.59211440  0.19329220  0.63201257  1.0
  F  F8089  1  0.59211440  0.27021527  0.63201257  1.0
  F  F8090  1  0.59211440  0.34713835  0.63201257  1.0
  F  F8091  1  0.59211440  0.42406143  0.63201257  1.0
  F  F8092  1  0.59211440  0.50098450  0.63201257  1.0
  F  F8093  1  0.59211440  0.57790758  0.63201257  1.0
  F  F8094  1  0.59211440  0.65483066  0.63201257  1.0
  F  F8095  1  0.59211440  0.73175373  0.63201257  1.0
  F  F8096  1  0.59211440  0.80867681  0.63201257  1.0
  F  F8097  1  0.59211440  0.88559989  0.63201257  1.0
  F  F8098  1  0.59211440  0.96252296  0.63201257  1.0
  F  F8099  1  0.68302350  0.03944604  0.63201257  1.0
  F  F8100  1  0.68302350  0.11636912  0.63201257  1.0
  F  F8101  1  0.68302350  0.19329220  0.63201257  1.0
  F  F8102  1  0.68302350  0.27021527  0.63201257  1.0
  F  F8103  1  0.68302350  0.34713835  0.63201257  1.0
  F  F8104  1  0.68302350  0.42406143  0.63201257  1.0
  F  F8105  1  0.68302350  0.50098450  0.63201257  1.0
  F  F8106  1  0.68302350  0.57790758  0.63201257  1.0
  F  F8107  1  0.68302350  0.65483066  0.63201257  1.0
  F  F8108  1  0.68302350  0.73175373  0.63201257  1.0
  F  F8109  1  0.68302350  0.80867681  0.63201257  1.0
  F  F8110  1  0.68302350  0.88559989  0.63201257  1.0
  F  F8111  1  0.68302350  0.96252296  0.63201257  1.0
  F  F8112  1  0.77393259  0.03944604  0.63201257  1.0
  F  F8113  1  0.77393259  0.11636912  0.63201257  1.0
  F  F8114  1  0.77393259  0.19329220  0.63201257  1.0
  F  F8115  1  0.77393259  0.27021527  0.63201257  1.0
  F  F8116  1  0.77393259  0.34713835  0.63201257  1.0
  F  F8117  1  0.77393259  0.42406143  0.63201257  1.0
  F  F8118  1  0.77393259  0.50098450  0.63201257  1.0
  F  F8119  1  0.77393259  0.57790758  0.63201257  1.0
  F  F8120  1  0.77393259  0.65483066  0.63201257  1.0
  F  F8121  1  0.77393259  0.73175373  0.63201257  1.0
  F  F8122  1  0.77393259  0.80867681  0.63201257  1.0
  F  F8123  1  0.77393259  0.88559989  0.63201257  1.0
  F  F8124  1  0.77393259  0.96252296  0.63201257  1.0
  F  F8125  1  0.86484168  0.03944604  0.63201257  1.0
  F  F8126  1  0.86484168  0.11636912  0.63201257  1.0
  F  F8127  1  0.86484168  0.19329220  0.63201257  1.0
  F  F8128  1  0.86484168  0.27021527  0.63201257  1.0
  F  F8129  1  0.86484168  0.34713835  0.63201257  1.0
  F  F8130  1  0.86484168  0.42406143  0.63201257  1.0
  F  F8131  1  0.86484168  0.50098450  0.63201257  1.0
  F  F8132  1  0.86484168  0.57790758  0.63201257  1.0
  F  F8133  1  0.86484168  0.65483066  0.63201257  1.0
  F  F8134  1  0.86484168  0.73175373  0.63201257  1.0
  F  F8135  1  0.86484168  0.80867681  0.63201257  1.0
  F  F8136  1  0.86484168  0.88559989  0.63201257  1.0
  F  F8137  1  0.86484168  0.96252296  0.63201257  1.0
  F  F8138  1  0.95575077  0.03944604  0.63201257  1.0
  F  F8139  1  0.95575077  0.11636912  0.63201257  1.0
  F  F8140  1  0.95575077  0.19329220  0.63201257  1.0
  F  F8141  1  0.95575077  0.27021527  0.63201257  1.0
  F  F8142  1  0.95575077  0.34713835  0.63201257  1.0
  F  F8143  1  0.95575077  0.42406143  0.63201257  1.0
  F  F8144  1  0.95575077  0.50098450  0.63201257  1.0
  F  F8145  1  0.95575077  0.57790758  0.63201257  1.0
  F  F8146  1  0.95575077  0.65483066  0.63201257  1.0
  F  F8147  1  0.95575077  0.73175373  0.63201257  1.0
  F  F8148  1  0.95575077  0.80867681  0.63201257  1.0
  F  F8149  1  0.95575077  0.88559989  0.63201257  1.0
  F  F8150  1  0.95575077  0.96252296  0.63201257  1.0
  F  F8151  1  0.03224014  0.06334115  0.69520888  1.0
  F  F8152  1  0.03224014  0.14026423  0.69520888  1.0
  F  F8153  1  0.03224014  0.21718730  0.69520888  1.0
  F  F8154  1  0.03224014  0.29411038  0.69520888  1.0
  F  F8155  1  0.03224014  0.37103346  0.69520888  1.0
  F  F8156  1  0.03224014  0.44795654  0.69520888  1.0
  F  F8157  1  0.03224014  0.52487961  0.69520888  1.0
  F  F8158  1  0.03224014  0.60180269  0.69520888  1.0
  F  F8159  1  0.03224014  0.67872577  0.69520888  1.0
  F  F8160  1  0.03224014  0.75564884  0.69520888  1.0
  F  F8161  1  0.03224014  0.83257192  0.69520888  1.0
  F  F8162  1  0.03224014  0.90949500  0.69520888  1.0
  F  F8163  1  0.03224014  0.98641807  0.69520888  1.0
  F  F8164  1  0.12314923  0.06334115  0.69520888  1.0
  F  F8165  1  0.12314923  0.14026423  0.69520888  1.0
  F  F8166  1  0.12314923  0.21718730  0.69520888  1.0
  F  F8167  1  0.12314923  0.29411038  0.69520888  1.0
  F  F8168  1  0.12314923  0.37103346  0.69520888  1.0
  F  F8169  1  0.12314923  0.44795654  0.69520888  1.0
  F  F8170  1  0.12314923  0.52487961  0.69520888  1.0
  F  F8171  1  0.12314923  0.60180269  0.69520888  1.0
  F  F8172  1  0.12314923  0.67872577  0.69520888  1.0
  F  F8173  1  0.12314923  0.75564884  0.69520888  1.0
  F  F8174  1  0.12314923  0.83257192  0.69520888  1.0
  F  F8175  1  0.12314923  0.90949500  0.69520888  1.0
  F  F8176  1  0.12314923  0.98641807  0.69520888  1.0
  F  F8177  1  0.21405832  0.06334115  0.69520888  1.0
  F  F8178  1  0.21405832  0.14026423  0.69520888  1.0
  F  F8179  1  0.21405832  0.21718730  0.69520888  1.0
  F  F8180  1  0.21405832  0.29411038  0.69520888  1.0
  F  F8181  1  0.21405832  0.37103346  0.69520888  1.0
  F  F8182  1  0.21405832  0.44795654  0.69520888  1.0
  F  F8183  1  0.21405832  0.52487961  0.69520888  1.0
  F  F8184  1  0.21405832  0.60180269  0.69520888  1.0
  F  F8185  1  0.21405832  0.67872577  0.69520888  1.0
  F  F8186  1  0.21405832  0.75564884  0.69520888  1.0
  F  F8187  1  0.21405832  0.83257192  0.69520888  1.0
  F  F8188  1  0.21405832  0.90949500  0.69520888  1.0
  F  F8189  1  0.21405832  0.98641807  0.69520888  1.0
  F  F8190  1  0.30496741  0.06334115  0.69520888  1.0
  F  F8191  1  0.30496741  0.14026423  0.69520888  1.0
  F  F8192  1  0.30496741  0.21718730  0.69520888  1.0
  F  F8193  1  0.30496741  0.29411038  0.69520888  1.0
  F  F8194  1  0.30496741  0.37103346  0.69520888  1.0
  F  F8195  1  0.30496741  0.44795654  0.69520888  1.0
  F  F8196  1  0.30496741  0.52487961  0.69520888  1.0
  F  F8197  1  0.30496741  0.60180269  0.69520888  1.0
  F  F8198  1  0.30496741  0.67872577  0.69520888  1.0
  F  F8199  1  0.30496741  0.75564884  0.69520888  1.0
  F  F8200  1  0.30496741  0.83257192  0.69520888  1.0
  F  F8201  1  0.30496741  0.90949500  0.69520888  1.0
  F  F8202  1  0.30496741  0.98641807  0.69520888  1.0
  F  F8203  1  0.39587651  0.06334115  0.69520888  1.0
  F  F8204  1  0.39587651  0.14026423  0.69520888  1.0
  F  F8205  1  0.39587651  0.21718730  0.69520888  1.0
  F  F8206  1  0.39587651  0.29411038  0.69520888  1.0
  F  F8207  1  0.39587651  0.37103346  0.69520888  1.0
  F  F8208  1  0.39587651  0.44795654  0.69520888  1.0
  F  F8209  1  0.39587651  0.52487961  0.69520888  1.0
  F  F8210  1  0.39587651  0.60180269  0.69520888  1.0
  F  F8211  1  0.39587651  0.67872577  0.69520888  1.0
  F  F8212  1  0.39587651  0.75564884  0.69520888  1.0
  F  F8213  1  0.39587651  0.83257192  0.69520888  1.0
  F  F8214  1  0.39587651  0.90949500  0.69520888  1.0
  F  F8215  1  0.39587651  0.98641807  0.69520888  1.0
  F  F8216  1  0.48678560  0.06334115  0.69520888  1.0
  F  F8217  1  0.48678560  0.14026423  0.69520888  1.0
  F  F8218  1  0.48678560  0.21718730  0.69520888  1.0
  F  F8219  1  0.48678560  0.29411038  0.69520888  1.0
  F  F8220  1  0.48678560  0.37103346  0.69520888  1.0
  F  F8221  1  0.48678560  0.44795654  0.69520888  1.0
  F  F8222  1  0.48678560  0.52487961  0.69520888  1.0
  F  F8223  1  0.48678560  0.60180269  0.69520888  1.0
  F  F8224  1  0.48678560  0.67872577  0.69520888  1.0
  F  F8225  1  0.48678560  0.75564884  0.69520888  1.0
  F  F8226  1  0.48678560  0.83257192  0.69520888  1.0
  F  F8227  1  0.48678560  0.90949500  0.69520888  1.0
  F  F8228  1  0.48678560  0.98641807  0.69520888  1.0
  F  F8229  1  0.57769469  0.06334115  0.69520888  1.0
  F  F8230  1  0.57769469  0.14026423  0.69520888  1.0
  F  F8231  1  0.57769469  0.21718730  0.69520888  1.0
  F  F8232  1  0.57769469  0.29411038  0.69520888  1.0
  F  F8233  1  0.57769469  0.37103346  0.69520888  1.0
  F  F8234  1  0.57769469  0.44795654  0.69520888  1.0
  F  F8235  1  0.57769469  0.52487961  0.69520888  1.0
  F  F8236  1  0.57769469  0.60180269  0.69520888  1.0
  F  F8237  1  0.57769469  0.67872577  0.69520888  1.0
  F  F8238  1  0.57769469  0.75564884  0.69520888  1.0
  F  F8239  1  0.57769469  0.83257192  0.69520888  1.0
  F  F8240  1  0.57769469  0.90949500  0.69520888  1.0
  F  F8241  1  0.57769469  0.98641807  0.69520888  1.0
  F  F8242  1  0.66860378  0.06334115  0.69520888  1.0
  F  F8243  1  0.66860378  0.14026423  0.69520888  1.0
  F  F8244  1  0.66860378  0.21718730  0.69520888  1.0
  F  F8245  1  0.66860378  0.29411038  0.69520888  1.0
  F  F8246  1  0.66860378  0.37103346  0.69520888  1.0
  F  F8247  1  0.66860378  0.44795654  0.69520888  1.0
  F  F8248  1  0.66860378  0.52487961  0.69520888  1.0
  F  F8249  1  0.66860378  0.60180269  0.69520888  1.0
  F  F8250  1  0.66860378  0.67872577  0.69520888  1.0
  F  F8251  1  0.66860378  0.75564884  0.69520888  1.0
  F  F8252  1  0.66860378  0.83257192  0.69520888  1.0
  F  F8253  1  0.66860378  0.90949500  0.69520888  1.0
  F  F8254  1  0.66860378  0.98641807  0.69520888  1.0
  F  F8255  1  0.75951287  0.06334115  0.69520888  1.0
  F  F8256  1  0.75951287  0.14026423  0.69520888  1.0
  F  F8257  1  0.75951287  0.21718730  0.69520888  1.0
  F  F8258  1  0.75951287  0.29411038  0.69520888  1.0
  F  F8259  1  0.75951287  0.37103346  0.69520888  1.0
  F  F8260  1  0.75951287  0.44795654  0.69520888  1.0
  F  F8261  1  0.75951287  0.52487961  0.69520888  1.0
  F  F8262  1  0.75951287  0.60180269  0.69520888  1.0
  F  F8263  1  0.75951287  0.67872577  0.69520888  1.0
  F  F8264  1  0.75951287  0.75564884  0.69520888  1.0
  F  F8265  1  0.75951287  0.83257192  0.69520888  1.0
  F  F8266  1  0.75951287  0.90949500  0.69520888  1.0
  F  F8267  1  0.75951287  0.98641807  0.69520888  1.0
  F  F8268  1  0.85042196  0.06334115  0.69520888  1.0
  F  F8269  1  0.85042196  0.14026423  0.69520888  1.0
  F  F8270  1  0.85042196  0.21718730  0.69520888  1.0
  F  F8271  1  0.85042196  0.29411038  0.69520888  1.0
  F  F8272  1  0.85042196  0.37103346  0.69520888  1.0
  F  F8273  1  0.85042196  0.44795654  0.69520888  1.0
  F  F8274  1  0.85042196  0.52487961  0.69520888  1.0
  F  F8275  1  0.85042196  0.60180269  0.69520888  1.0
  F  F8276  1  0.85042196  0.67872577  0.69520888  1.0
  F  F8277  1  0.85042196  0.75564884  0.69520888  1.0
  F  F8278  1  0.85042196  0.83257192  0.69520888  1.0
  F  F8279  1  0.85042196  0.90949500  0.69520888  1.0
  F  F8280  1  0.85042196  0.98641807  0.69520888  1.0
  F  F8281  1  0.94133105  0.06334115  0.69520888  1.0
  F  F8282  1  0.94133105  0.14026423  0.69520888  1.0
  F  F8283  1  0.94133105  0.21718730  0.69520888  1.0
  F  F8284  1  0.94133105  0.29411038  0.69520888  1.0
  F  F8285  1  0.94133105  0.37103346  0.69520888  1.0
  F  F8286  1  0.94133105  0.44795654  0.69520888  1.0
  F  F8287  1  0.94133105  0.52487961  0.69520888  1.0
  F  F8288  1  0.94133105  0.60180269  0.69520888  1.0
  F  F8289  1  0.94133105  0.67872577  0.69520888  1.0
  F  F8290  1  0.94133105  0.75564884  0.69520888  1.0
  F  F8291  1  0.94133105  0.83257192  0.69520888  1.0
  F  F8292  1  0.94133105  0.90949500  0.69520888  1.0
  F  F8293  1  0.94133105  0.98641807  0.69520888  1.0
  F  F8294  1  0.06254317  0.01205910  0.76187554  1.0
  F  F8295  1  0.06254317  0.08898218  0.76187554  1.0
  F  F8296  1  0.06254317  0.16590525  0.76187554  1.0
  F  F8297  1  0.06254317  0.24282833  0.76187554  1.0
  F  F8298  1  0.06254317  0.31975141  0.76187554  1.0
  F  F8299  1  0.06254317  0.39667448  0.76187554  1.0
  F  F8300  1  0.06254317  0.47359756  0.76187554  1.0
  F  F8301  1  0.06254317  0.55052064  0.76187554  1.0
  F  F8302  1  0.06254317  0.62744371  0.76187554  1.0
  F  F8303  1  0.06254317  0.70436679  0.76187554  1.0
  F  F8304  1  0.06254317  0.78128987  0.76187554  1.0
  F  F8305  1  0.06254317  0.85821295  0.76187554  1.0
  F  F8306  1  0.06254317  0.93513602  0.76187554  1.0
  F  F8307  1  0.15345226  0.01205910  0.76187554  1.0
  F  F8308  1  0.15345226  0.08898218  0.76187554  1.0
  F  F8309  1  0.15345226  0.16590525  0.76187554  1.0
  F  F8310  1  0.15345226  0.24282833  0.76187554  1.0
  F  F8311  1  0.15345226  0.31975141  0.76187554  1.0
  F  F8312  1  0.15345226  0.39667448  0.76187554  1.0
  F  F8313  1  0.15345226  0.47359756  0.76187554  1.0
  F  F8314  1  0.15345226  0.55052064  0.76187554  1.0
  F  F8315  1  0.15345226  0.62744371  0.76187554  1.0
  F  F8316  1  0.15345226  0.70436679  0.76187554  1.0
  F  F8317  1  0.15345226  0.78128987  0.76187554  1.0
  F  F8318  1  0.15345226  0.85821295  0.76187554  1.0
  F  F8319  1  0.15345226  0.93513602  0.76187554  1.0
  F  F8320  1  0.24436135  0.01205910  0.76187554  1.0
  F  F8321  1  0.24436135  0.08898218  0.76187554  1.0
  F  F8322  1  0.24436135  0.16590525  0.76187554  1.0
  F  F8323  1  0.24436135  0.24282833  0.76187554  1.0
  F  F8324  1  0.24436135  0.31975141  0.76187554  1.0
  F  F8325  1  0.24436135  0.39667448  0.76187554  1.0
  F  F8326  1  0.24436135  0.47359756  0.76187554  1.0
  F  F8327  1  0.24436135  0.55052064  0.76187554  1.0
  F  F8328  1  0.24436135  0.62744371  0.76187554  1.0
  F  F8329  1  0.24436135  0.70436679  0.76187554  1.0
  F  F8330  1  0.24436135  0.78128987  0.76187554  1.0
  F  F8331  1  0.24436135  0.85821295  0.76187554  1.0
  F  F8332  1  0.24436135  0.93513602  0.76187554  1.0
  F  F8333  1  0.33527044  0.01205910  0.76187554  1.0
  F  F8334  1  0.33527044  0.08898218  0.76187554  1.0
  F  F8335  1  0.33527044  0.16590525  0.76187554  1.0
  F  F8336  1  0.33527044  0.24282833  0.76187554  1.0
  F  F8337  1  0.33527044  0.31975141  0.76187554  1.0
  F  F8338  1  0.33527044  0.39667448  0.76187554  1.0
  F  F8339  1  0.33527044  0.47359756  0.76187554  1.0
  F  F8340  1  0.33527044  0.55052064  0.76187554  1.0
  F  F8341  1  0.33527044  0.62744371  0.76187554  1.0
  F  F8342  1  0.33527044  0.70436679  0.76187554  1.0
  F  F8343  1  0.33527044  0.78128987  0.76187554  1.0
  F  F8344  1  0.33527044  0.85821295  0.76187554  1.0
  F  F8345  1  0.33527044  0.93513602  0.76187554  1.0
  F  F8346  1  0.42617954  0.01205910  0.76187554  1.0
  F  F8347  1  0.42617954  0.08898218  0.76187554  1.0
  F  F8348  1  0.42617954  0.16590525  0.76187554  1.0
  F  F8349  1  0.42617954  0.24282833  0.76187554  1.0
  F  F8350  1  0.42617954  0.31975141  0.76187554  1.0
  F  F8351  1  0.42617954  0.39667448  0.76187554  1.0
  F  F8352  1  0.42617954  0.47359756  0.76187554  1.0
  F  F8353  1  0.42617954  0.55052064  0.76187554  1.0
  F  F8354  1  0.42617954  0.62744371  0.76187554  1.0
  F  F8355  1  0.42617954  0.70436679  0.76187554  1.0
  F  F8356  1  0.42617954  0.78128987  0.76187554  1.0
  F  F8357  1  0.42617954  0.85821295  0.76187554  1.0
  F  F8358  1  0.42617954  0.93513602  0.76187554  1.0
  F  F8359  1  0.51708863  0.01205910  0.76187554  1.0
  F  F8360  1  0.51708863  0.08898218  0.76187554  1.0
  F  F8361  1  0.51708863  0.16590525  0.76187554  1.0
  F  F8362  1  0.51708863  0.24282833  0.76187554  1.0
  F  F8363  1  0.51708863  0.31975141  0.76187554  1.0
  F  F8364  1  0.51708863  0.39667448  0.76187554  1.0
  F  F8365  1  0.51708863  0.47359756  0.76187554  1.0
  F  F8366  1  0.51708863  0.55052064  0.76187554  1.0
  F  F8367  1  0.51708863  0.62744371  0.76187554  1.0
  F  F8368  1  0.51708863  0.70436679  0.76187554  1.0
  F  F8369  1  0.51708863  0.78128987  0.76187554  1.0
  F  F8370  1  0.51708863  0.85821295  0.76187554  1.0
  F  F8371  1  0.51708863  0.93513602  0.76187554  1.0
  F  F8372  1  0.60799772  0.01205910  0.76187554  1.0
  F  F8373  1  0.60799772  0.08898218  0.76187554  1.0
  F  F8374  1  0.60799772  0.16590525  0.76187554  1.0
  F  F8375  1  0.60799772  0.24282833  0.76187554  1.0
  F  F8376  1  0.60799772  0.31975141  0.76187554  1.0
  F  F8377  1  0.60799772  0.39667448  0.76187554  1.0
  F  F8378  1  0.60799772  0.47359756  0.76187554  1.0
  F  F8379  1  0.60799772  0.55052064  0.76187554  1.0
  F  F8380  1  0.60799772  0.62744371  0.76187554  1.0
  F  F8381  1  0.60799772  0.70436679  0.76187554  1.0
  F  F8382  1  0.60799772  0.78128987  0.76187554  1.0
  F  F8383  1  0.60799772  0.85821295  0.76187554  1.0
  F  F8384  1  0.60799772  0.93513602  0.76187554  1.0
  F  F8385  1  0.69890681  0.01205910  0.76187554  1.0
  F  F8386  1  0.69890681  0.08898218  0.76187554  1.0
  F  F8387  1  0.69890681  0.16590525  0.76187554  1.0
  F  F8388  1  0.69890681  0.24282833  0.76187554  1.0
  F  F8389  1  0.69890681  0.31975141  0.76187554  1.0
  F  F8390  1  0.69890681  0.39667448  0.76187554  1.0
  F  F8391  1  0.69890681  0.47359756  0.76187554  1.0
  F  F8392  1  0.69890681  0.55052064  0.76187554  1.0
  F  F8393  1  0.69890681  0.62744371  0.76187554  1.0
  F  F8394  1  0.69890681  0.70436679  0.76187554  1.0
  F  F8395  1  0.69890681  0.78128987  0.76187554  1.0
  F  F8396  1  0.69890681  0.85821295  0.76187554  1.0
  F  F8397  1  0.69890681  0.93513602  0.76187554  1.0
  F  F8398  1  0.78981590  0.01205910  0.76187554  1.0
  F  F8399  1  0.78981590  0.08898218  0.76187554  1.0
  F  F8400  1  0.78981590  0.16590525  0.76187554  1.0
  F  F8401  1  0.78981590  0.24282833  0.76187554  1.0
  F  F8402  1  0.78981590  0.31975141  0.76187554  1.0
  F  F8403  1  0.78981590  0.39667448  0.76187554  1.0
  F  F8404  1  0.78981590  0.47359756  0.76187554  1.0
  F  F8405  1  0.78981590  0.55052064  0.76187554  1.0
  F  F8406  1  0.78981590  0.62744371  0.76187554  1.0
  F  F8407  1  0.78981590  0.70436679  0.76187554  1.0
  F  F8408  1  0.78981590  0.78128987  0.76187554  1.0
  F  F8409  1  0.78981590  0.85821295  0.76187554  1.0
  F  F8410  1  0.78981590  0.93513602  0.76187554  1.0
  F  F8411  1  0.88072499  0.01205910  0.76187554  1.0
  F  F8412  1  0.88072499  0.08898218  0.76187554  1.0
  F  F8413  1  0.88072499  0.16590525  0.76187554  1.0
  F  F8414  1  0.88072499  0.24282833  0.76187554  1.0
  F  F8415  1  0.88072499  0.31975141  0.76187554  1.0
  F  F8416  1  0.88072499  0.39667448  0.76187554  1.0
  F  F8417  1  0.88072499  0.47359756  0.76187554  1.0
  F  F8418  1  0.88072499  0.55052064  0.76187554  1.0
  F  F8419  1  0.88072499  0.62744371  0.76187554  1.0
  F  F8420  1  0.88072499  0.70436679  0.76187554  1.0
  F  F8421  1  0.88072499  0.78128987  0.76187554  1.0
  F  F8422  1  0.88072499  0.85821295  0.76187554  1.0
  F  F8423  1  0.88072499  0.93513602  0.76187554  1.0
  F  F8424  1  0.97163408  0.01205910  0.76187554  1.0
  F  F8425  1  0.97163408  0.08898218  0.76187554  1.0
  F  F8426  1  0.97163408  0.16590525  0.76187554  1.0
  F  F8427  1  0.97163408  0.24282833  0.76187554  1.0
  F  F8428  1  0.97163408  0.31975141  0.76187554  1.0
  F  F8429  1  0.97163408  0.39667448  0.76187554  1.0
  F  F8430  1  0.97163408  0.47359756  0.76187554  1.0
  F  F8431  1  0.97163408  0.55052064  0.76187554  1.0
  F  F8432  1  0.97163408  0.62744371  0.76187554  1.0
  F  F8433  1  0.97163408  0.70436679  0.76187554  1.0
  F  F8434  1  0.97163408  0.78128987  0.76187554  1.0
  F  F8435  1  0.97163408  0.85821295  0.76187554  1.0
  F  F8436  1  0.97163408  0.93513602  0.76187554  1.0
  F  F8437  1  0.00193711  0.03770012  0.62854221  1.0
  F  F8438  1  0.00193711  0.11462320  0.62854221  1.0
  F  F8439  1  0.00193711  0.19154628  0.62854221  1.0
  F  F8440  1  0.00193711  0.26846936  0.62854221  1.0
  F  F8441  1  0.00193711  0.34539243  0.62854221  1.0
  F  F8442  1  0.00193711  0.42231551  0.62854221  1.0
  F  F8443  1  0.00193711  0.49923859  0.62854221  1.0
  F  F8444  1  0.00193711  0.57616166  0.62854221  1.0
  F  F8445  1  0.00193711  0.65308474  0.62854221  1.0
  F  F8446  1  0.00193711  0.73000782  0.62854221  1.0
  F  F8447  1  0.00193711  0.80693089  0.62854221  1.0
  F  F8448  1  0.00193711  0.88385397  0.62854221  1.0
  F  F8449  1  0.00193711  0.96077705  0.62854221  1.0
  F  F8450  1  0.09284620  0.03770012  0.62854221  1.0
  F  F8451  1  0.09284620  0.11462320  0.62854221  1.0
  F  F8452  1  0.09284620  0.19154628  0.62854221  1.0
  F  F8453  1  0.09284620  0.26846936  0.62854221  1.0
  F  F8454  1  0.09284620  0.34539243  0.62854221  1.0
  F  F8455  1  0.09284620  0.42231551  0.62854221  1.0
  F  F8456  1  0.09284620  0.49923859  0.62854221  1.0
  F  F8457  1  0.09284620  0.57616166  0.62854221  1.0
  F  F8458  1  0.09284620  0.65308474  0.62854221  1.0
  F  F8459  1  0.09284620  0.73000782  0.62854221  1.0
  F  F8460  1  0.09284620  0.80693089  0.62854221  1.0
  F  F8461  1  0.09284620  0.88385397  0.62854221  1.0
  F  F8462  1  0.09284620  0.96077705  0.62854221  1.0
  F  F8463  1  0.18375529  0.03770012  0.62854221  1.0
  F  F8464  1  0.18375529  0.11462320  0.62854221  1.0
  F  F8465  1  0.18375529  0.19154628  0.62854221  1.0
  F  F8466  1  0.18375529  0.26846936  0.62854221  1.0
  F  F8467  1  0.18375529  0.34539243  0.62854221  1.0
  F  F8468  1  0.18375529  0.42231551  0.62854221  1.0
  F  F8469  1  0.18375529  0.49923859  0.62854221  1.0
  F  F8470  1  0.18375529  0.57616166  0.62854221  1.0
  F  F8471  1  0.18375529  0.65308474  0.62854221  1.0
  F  F8472  1  0.18375529  0.73000782  0.62854221  1.0
  F  F8473  1  0.18375529  0.80693089  0.62854221  1.0
  F  F8474  1  0.18375529  0.88385397  0.62854221  1.0
  F  F8475  1  0.18375529  0.96077705  0.62854221  1.0
  F  F8476  1  0.27466438  0.03770012  0.62854221  1.0
  F  F8477  1  0.27466438  0.11462320  0.62854221  1.0
  F  F8478  1  0.27466438  0.19154628  0.62854221  1.0
  F  F8479  1  0.27466438  0.26846936  0.62854221  1.0
  F  F8480  1  0.27466438  0.34539243  0.62854221  1.0
  F  F8481  1  0.27466438  0.42231551  0.62854221  1.0
  F  F8482  1  0.27466438  0.49923859  0.62854221  1.0
  F  F8483  1  0.27466438  0.57616166  0.62854221  1.0
  F  F8484  1  0.27466438  0.65308474  0.62854221  1.0
  F  F8485  1  0.27466438  0.73000782  0.62854221  1.0
  F  F8486  1  0.27466438  0.80693089  0.62854221  1.0
  F  F8487  1  0.27466438  0.88385397  0.62854221  1.0
  F  F8488  1  0.27466438  0.96077705  0.62854221  1.0
  F  F8489  1  0.36557347  0.03770012  0.62854221  1.0
  F  F8490  1  0.36557347  0.11462320  0.62854221  1.0
  F  F8491  1  0.36557347  0.19154628  0.62854221  1.0
  F  F8492  1  0.36557347  0.26846936  0.62854221  1.0
  F  F8493  1  0.36557347  0.34539243  0.62854221  1.0
  F  F8494  1  0.36557347  0.42231551  0.62854221  1.0
  F  F8495  1  0.36557347  0.49923859  0.62854221  1.0
  F  F8496  1  0.36557347  0.57616166  0.62854221  1.0
  F  F8497  1  0.36557347  0.65308474  0.62854221  1.0
  F  F8498  1  0.36557347  0.73000782  0.62854221  1.0
  F  F8499  1  0.36557347  0.80693089  0.62854221  1.0
  F  F8500  1  0.36557347  0.88385397  0.62854221  1.0
  F  F8501  1  0.36557347  0.96077705  0.62854221  1.0
  F  F8502  1  0.45648257  0.03770012  0.62854221  1.0
  F  F8503  1  0.45648257  0.11462320  0.62854221  1.0
  F  F8504  1  0.45648257  0.19154628  0.62854221  1.0
  F  F8505  1  0.45648257  0.26846936  0.62854221  1.0
  F  F8506  1  0.45648257  0.34539243  0.62854221  1.0
  F  F8507  1  0.45648257  0.42231551  0.62854221  1.0
  F  F8508  1  0.45648257  0.49923859  0.62854221  1.0
  F  F8509  1  0.45648257  0.57616166  0.62854221  1.0
  F  F8510  1  0.45648257  0.65308474  0.62854221  1.0
  F  F8511  1  0.45648257  0.73000782  0.62854221  1.0
  F  F8512  1  0.45648257  0.80693089  0.62854221  1.0
  F  F8513  1  0.45648257  0.88385397  0.62854221  1.0
  F  F8514  1  0.45648257  0.96077705  0.62854221  1.0
  F  F8515  1  0.54739166  0.03770012  0.62854221  1.0
  F  F8516  1  0.54739166  0.11462320  0.62854221  1.0
  F  F8517  1  0.54739166  0.19154628  0.62854221  1.0
  F  F8518  1  0.54739166  0.26846936  0.62854221  1.0
  F  F8519  1  0.54739166  0.34539243  0.62854221  1.0
  F  F8520  1  0.54739166  0.42231551  0.62854221  1.0
  F  F8521  1  0.54739166  0.49923859  0.62854221  1.0
  F  F8522  1  0.54739166  0.57616166  0.62854221  1.0
  F  F8523  1  0.54739166  0.65308474  0.62854221  1.0
  F  F8524  1  0.54739166  0.73000782  0.62854221  1.0
  F  F8525  1  0.54739166  0.80693089  0.62854221  1.0
  F  F8526  1  0.54739166  0.88385397  0.62854221  1.0
  F  F8527  1  0.54739166  0.96077705  0.62854221  1.0
  F  F8528  1  0.63830075  0.03770012  0.62854221  1.0
  F  F8529  1  0.63830075  0.11462320  0.62854221  1.0
  F  F8530  1  0.63830075  0.19154628  0.62854221  1.0
  F  F8531  1  0.63830075  0.26846936  0.62854221  1.0
  F  F8532  1  0.63830075  0.34539243  0.62854221  1.0
  F  F8533  1  0.63830075  0.42231551  0.62854221  1.0
  F  F8534  1  0.63830075  0.49923859  0.62854221  1.0
  F  F8535  1  0.63830075  0.57616166  0.62854221  1.0
  F  F8536  1  0.63830075  0.65308474  0.62854221  1.0
  F  F8537  1  0.63830075  0.73000782  0.62854221  1.0
  F  F8538  1  0.63830075  0.80693089  0.62854221  1.0
  F  F8539  1  0.63830075  0.88385397  0.62854221  1.0
  F  F8540  1  0.63830075  0.96077705  0.62854221  1.0
  F  F8541  1  0.72920984  0.03770012  0.62854221  1.0
  F  F8542  1  0.72920984  0.11462320  0.62854221  1.0
  F  F8543  1  0.72920984  0.19154628  0.62854221  1.0
  F  F8544  1  0.72920984  0.26846936  0.62854221  1.0
  F  F8545  1  0.72920984  0.34539243  0.62854221  1.0
  F  F8546  1  0.72920984  0.42231551  0.62854221  1.0
  F  F8547  1  0.72920984  0.49923859  0.62854221  1.0
  F  F8548  1  0.72920984  0.57616166  0.62854221  1.0
  F  F8549  1  0.72920984  0.65308474  0.62854221  1.0
  F  F8550  1  0.72920984  0.73000782  0.62854221  1.0
  F  F8551  1  0.72920984  0.80693089  0.62854221  1.0
  F  F8552  1  0.72920984  0.88385397  0.62854221  1.0
  F  F8553  1  0.72920984  0.96077705  0.62854221  1.0
  F  F8554  1  0.82011893  0.03770012  0.62854221  1.0
  F  F8555  1  0.82011893  0.11462320  0.62854221  1.0
  F  F8556  1  0.82011893  0.19154628  0.62854221  1.0
  F  F8557  1  0.82011893  0.26846936  0.62854221  1.0
  F  F8558  1  0.82011893  0.34539243  0.62854221  1.0
  F  F8559  1  0.82011893  0.42231551  0.62854221  1.0
  F  F8560  1  0.82011893  0.49923859  0.62854221  1.0
  F  F8561  1  0.82011893  0.57616166  0.62854221  1.0
  F  F8562  1  0.82011893  0.65308474  0.62854221  1.0
  F  F8563  1  0.82011893  0.73000782  0.62854221  1.0
  F  F8564  1  0.82011893  0.80693089  0.62854221  1.0
  F  F8565  1  0.82011893  0.88385397  0.62854221  1.0
  F  F8566  1  0.82011893  0.96077705  0.62854221  1.0
  F  F8567  1  0.91102802  0.03770012  0.62854221  1.0
  F  F8568  1  0.91102802  0.11462320  0.62854221  1.0
  F  F8569  1  0.91102802  0.19154628  0.62854221  1.0
  F  F8570  1  0.91102802  0.26846936  0.62854221  1.0
  F  F8571  1  0.91102802  0.34539243  0.62854221  1.0
  F  F8572  1  0.91102802  0.42231551  0.62854221  1.0
  F  F8573  1  0.91102802  0.49923859  0.62854221  1.0
  F  F8574  1  0.91102802  0.57616166  0.62854221  1.0
  F  F8575  1  0.91102802  0.65308474  0.62854221  1.0
  F  F8576  1  0.91102802  0.73000782  0.62854221  1.0
  F  F8577  1  0.91102802  0.80693089  0.62854221  1.0
  F  F8578  1  0.91102802  0.88385397  0.62854221  1.0
  F  F8579  1  0.91102802  0.96077705  0.62854221  1.0
  F  F8580  1  0.01247164  0.05102528  0.66331554  1.0
  F  F8581  1  0.01247164  0.12794836  0.66331554  1.0
  F  F8582  1  0.01247164  0.20487144  0.66331554  1.0
  F  F8583  1  0.01247164  0.28179451  0.66331554  1.0
  F  F8584  1  0.01247164  0.35871759  0.66331554  1.0
  F  F8585  1  0.01247164  0.43564067  0.66331554  1.0
  F  F8586  1  0.01247164  0.51256374  0.66331554  1.0
  F  F8587  1  0.01247164  0.58948682  0.66331554  1.0
  F  F8588  1  0.01247164  0.66640990  0.66331554  1.0
  F  F8589  1  0.01247164  0.74333297  0.66331554  1.0
  F  F8590  1  0.01247164  0.82025605  0.66331554  1.0
  F  F8591  1  0.01247164  0.89717913  0.66331554  1.0
  F  F8592  1  0.01247164  0.97410221  0.66331554  1.0
  F  F8593  1  0.10338073  0.05102528  0.66331554  1.0
  F  F8594  1  0.10338073  0.12794836  0.66331554  1.0
  F  F8595  1  0.10338073  0.20487144  0.66331554  1.0
  F  F8596  1  0.10338073  0.28179451  0.66331554  1.0
  F  F8597  1  0.10338073  0.35871759  0.66331554  1.0
  F  F8598  1  0.10338073  0.43564067  0.66331554  1.0
  F  F8599  1  0.10338073  0.51256374  0.66331554  1.0
  F  F8600  1  0.10338073  0.58948682  0.66331554  1.0
  F  F8601  1  0.10338073  0.66640990  0.66331554  1.0
  F  F8602  1  0.10338073  0.74333297  0.66331554  1.0
  F  F8603  1  0.10338073  0.82025605  0.66331554  1.0
  F  F8604  1  0.10338073  0.89717913  0.66331554  1.0
  F  F8605  1  0.10338073  0.97410221  0.66331554  1.0
  F  F8606  1  0.19428982  0.05102528  0.66331554  1.0
  F  F8607  1  0.19428982  0.12794836  0.66331554  1.0
  F  F8608  1  0.19428982  0.20487144  0.66331554  1.0
  F  F8609  1  0.19428982  0.28179451  0.66331554  1.0
  F  F8610  1  0.19428982  0.35871759  0.66331554  1.0
  F  F8611  1  0.19428982  0.43564067  0.66331554  1.0
  F  F8612  1  0.19428982  0.51256374  0.66331554  1.0
  F  F8613  1  0.19428982  0.58948682  0.66331554  1.0
  F  F8614  1  0.19428982  0.66640990  0.66331554  1.0
  F  F8615  1  0.19428982  0.74333297  0.66331554  1.0
  F  F8616  1  0.19428982  0.82025605  0.66331554  1.0
  F  F8617  1  0.19428982  0.89717913  0.66331554  1.0
  F  F8618  1  0.19428982  0.97410221  0.66331554  1.0
  F  F8619  1  0.28519891  0.05102528  0.66331554  1.0
  F  F8620  1  0.28519891  0.12794836  0.66331554  1.0
  F  F8621  1  0.28519891  0.20487144  0.66331554  1.0
  F  F8622  1  0.28519891  0.28179451  0.66331554  1.0
  F  F8623  1  0.28519891  0.35871759  0.66331554  1.0
  F  F8624  1  0.28519891  0.43564067  0.66331554  1.0
  F  F8625  1  0.28519891  0.51256374  0.66331554  1.0
  F  F8626  1  0.28519891  0.58948682  0.66331554  1.0
  F  F8627  1  0.28519891  0.66640990  0.66331554  1.0
  F  F8628  1  0.28519891  0.74333297  0.66331554  1.0
  F  F8629  1  0.28519891  0.82025605  0.66331554  1.0
  F  F8630  1  0.28519891  0.89717913  0.66331554  1.0
  F  F8631  1  0.28519891  0.97410221  0.66331554  1.0
  F  F8632  1  0.37610800  0.05102528  0.66331554  1.0
  F  F8633  1  0.37610800  0.12794836  0.66331554  1.0
  F  F8634  1  0.37610800  0.20487144  0.66331554  1.0
  F  F8635  1  0.37610800  0.28179451  0.66331554  1.0
  F  F8636  1  0.37610800  0.35871759  0.66331554  1.0
  F  F8637  1  0.37610800  0.43564067  0.66331554  1.0
  F  F8638  1  0.37610800  0.51256374  0.66331554  1.0
  F  F8639  1  0.37610800  0.58948682  0.66331554  1.0
  F  F8640  1  0.37610800  0.66640990  0.66331554  1.0
  F  F8641  1  0.37610800  0.74333297  0.66331554  1.0
  F  F8642  1  0.37610800  0.82025605  0.66331554  1.0
  F  F8643  1  0.37610800  0.89717913  0.66331554  1.0
  F  F8644  1  0.37610800  0.97410221  0.66331554  1.0
  F  F8645  1  0.46701709  0.05102528  0.66331554  1.0
  F  F8646  1  0.46701709  0.12794836  0.66331554  1.0
  F  F8647  1  0.46701709  0.20487144  0.66331554  1.0
  F  F8648  1  0.46701709  0.28179451  0.66331554  1.0
  F  F8649  1  0.46701709  0.35871759  0.66331554  1.0
  F  F8650  1  0.46701709  0.43564067  0.66331554  1.0
  F  F8651  1  0.46701709  0.51256374  0.66331554  1.0
  F  F8652  1  0.46701709  0.58948682  0.66331554  1.0
  F  F8653  1  0.46701709  0.66640990  0.66331554  1.0
  F  F8654  1  0.46701709  0.74333297  0.66331554  1.0
  F  F8655  1  0.46701709  0.82025605  0.66331554  1.0
  F  F8656  1  0.46701709  0.89717913  0.66331554  1.0
  F  F8657  1  0.46701709  0.97410221  0.66331554  1.0
  F  F8658  1  0.55792618  0.05102528  0.66331554  1.0
  F  F8659  1  0.55792618  0.12794836  0.66331554  1.0
  F  F8660  1  0.55792618  0.20487144  0.66331554  1.0
  F  F8661  1  0.55792618  0.28179451  0.66331554  1.0
  F  F8662  1  0.55792618  0.35871759  0.66331554  1.0
  F  F8663  1  0.55792618  0.43564067  0.66331554  1.0
  F  F8664  1  0.55792618  0.51256374  0.66331554  1.0
  F  F8665  1  0.55792618  0.58948682  0.66331554  1.0
  F  F8666  1  0.55792618  0.66640990  0.66331554  1.0
  F  F8667  1  0.55792618  0.74333297  0.66331554  1.0
  F  F8668  1  0.55792618  0.82025605  0.66331554  1.0
  F  F8669  1  0.55792618  0.89717913  0.66331554  1.0
  F  F8670  1  0.55792618  0.97410221  0.66331554  1.0
  F  F8671  1  0.64883527  0.05102528  0.66331554  1.0
  F  F8672  1  0.64883527  0.12794836  0.66331554  1.0
  F  F8673  1  0.64883527  0.20487144  0.66331554  1.0
  F  F8674  1  0.64883527  0.28179451  0.66331554  1.0
  F  F8675  1  0.64883527  0.35871759  0.66331554  1.0
  F  F8676  1  0.64883527  0.43564067  0.66331554  1.0
  F  F8677  1  0.64883527  0.51256374  0.66331554  1.0
  F  F8678  1  0.64883527  0.58948682  0.66331554  1.0
  F  F8679  1  0.64883527  0.66640990  0.66331554  1.0
  F  F8680  1  0.64883527  0.74333297  0.66331554  1.0
  F  F8681  1  0.64883527  0.82025605  0.66331554  1.0
  F  F8682  1  0.64883527  0.89717913  0.66331554  1.0
  F  F8683  1  0.64883527  0.97410221  0.66331554  1.0
  F  F8684  1  0.73974436  0.05102528  0.66331554  1.0
  F  F8685  1  0.73974436  0.12794836  0.66331554  1.0
  F  F8686  1  0.73974436  0.20487144  0.66331554  1.0
  F  F8687  1  0.73974436  0.28179451  0.66331554  1.0
  F  F8688  1  0.73974436  0.35871759  0.66331554  1.0
  F  F8689  1  0.73974436  0.43564067  0.66331554  1.0
  F  F8690  1  0.73974436  0.51256374  0.66331554  1.0
  F  F8691  1  0.73974436  0.58948682  0.66331554  1.0
  F  F8692  1  0.73974436  0.66640990  0.66331554  1.0
  F  F8693  1  0.73974436  0.74333297  0.66331554  1.0
  F  F8694  1  0.73974436  0.82025605  0.66331554  1.0
  F  F8695  1  0.73974436  0.89717913  0.66331554  1.0
  F  F8696  1  0.73974436  0.97410221  0.66331554  1.0
  F  F8697  1  0.83065346  0.05102528  0.66331554  1.0
  F  F8698  1  0.83065346  0.12794836  0.66331554  1.0
  F  F8699  1  0.83065346  0.20487144  0.66331554  1.0
  F  F8700  1  0.83065346  0.28179451  0.66331554  1.0
  F  F8701  1  0.83065346  0.35871759  0.66331554  1.0
  F  F8702  1  0.83065346  0.43564067  0.66331554  1.0
  F  F8703  1  0.83065346  0.51256374  0.66331554  1.0
  F  F8704  1  0.83065346  0.58948682  0.66331554  1.0
  F  F8705  1  0.83065346  0.66640990  0.66331554  1.0
  F  F8706  1  0.83065346  0.74333297  0.66331554  1.0
  F  F8707  1  0.83065346  0.82025605  0.66331554  1.0
  F  F8708  1  0.83065346  0.89717913  0.66331554  1.0
  F  F8709  1  0.83065346  0.97410221  0.66331554  1.0
  F  F8710  1  0.92156255  0.05102528  0.66331554  1.0
  F  F8711  1  0.92156255  0.12794836  0.66331554  1.0
  F  F8712  1  0.92156255  0.20487144  0.66331554  1.0
  F  F8713  1  0.92156255  0.28179451  0.66331554  1.0
  F  F8714  1  0.92156255  0.35871759  0.66331554  1.0
  F  F8715  1  0.92156255  0.43564067  0.66331554  1.0
  F  F8716  1  0.92156255  0.51256374  0.66331554  1.0
  F  F8717  1  0.92156255  0.58948682  0.66331554  1.0
  F  F8718  1  0.92156255  0.66640990  0.66331554  1.0
  F  F8719  1  0.92156255  0.74333297  0.66331554  1.0
  F  F8720  1  0.92156255  0.82025605  0.66331554  1.0
  F  F8721  1  0.92156255  0.89717913  0.66331554  1.0
  F  F8722  1  0.92156255  0.97410221  0.66331554  1.0
  F  F8723  1  0.04277467  0.07666631  0.72998221  1.0
  F  F8724  1  0.04277467  0.15358939  0.72998221  1.0
  F  F8725  1  0.04277467  0.23051246  0.72998221  1.0
  F  F8726  1  0.04277467  0.30743554  0.72998221  1.0
  F  F8727  1  0.04277467  0.38435862  0.72998221  1.0
  F  F8728  1  0.04277467  0.46128169  0.72998221  1.0
  F  F8729  1  0.04277467  0.53820477  0.72998221  1.0
  F  F8730  1  0.04277467  0.61512785  0.72998221  1.0
  F  F8731  1  0.04277467  0.69205092  0.72998221  1.0
  F  F8732  1  0.04277467  0.76897400  0.72998221  1.0
  F  F8733  1  0.04277467  0.84589708  0.72998221  1.0
  F  F8734  1  0.04277467  0.92282015  0.72998221  1.0
  F  F8735  1  0.04277467  0.99974323  0.72998221  1.0
  F  F8736  1  0.13368376  0.07666631  0.72998221  1.0
  F  F8737  1  0.13368376  0.15358939  0.72998221  1.0
  F  F8738  1  0.13368376  0.23051246  0.72998221  1.0
  F  F8739  1  0.13368376  0.30743554  0.72998221  1.0
  F  F8740  1  0.13368376  0.38435862  0.72998221  1.0
  F  F8741  1  0.13368376  0.46128169  0.72998221  1.0
  F  F8742  1  0.13368376  0.53820477  0.72998221  1.0
  F  F8743  1  0.13368376  0.61512785  0.72998221  1.0
  F  F8744  1  0.13368376  0.69205092  0.72998221  1.0
  F  F8745  1  0.13368376  0.76897400  0.72998221  1.0
  F  F8746  1  0.13368376  0.84589708  0.72998221  1.0
  F  F8747  1  0.13368376  0.92282015  0.72998221  1.0
  F  F8748  1  0.13368376  0.99974323  0.72998221  1.0
  F  F8749  1  0.22459285  0.07666631  0.72998221  1.0
  F  F8750  1  0.22459285  0.15358939  0.72998221  1.0
  F  F8751  1  0.22459285  0.23051246  0.72998221  1.0
  F  F8752  1  0.22459285  0.30743554  0.72998221  1.0
  F  F8753  1  0.22459285  0.38435862  0.72998221  1.0
  F  F8754  1  0.22459285  0.46128169  0.72998221  1.0
  F  F8755  1  0.22459285  0.53820477  0.72998221  1.0
  F  F8756  1  0.22459285  0.61512785  0.72998221  1.0
  F  F8757  1  0.22459285  0.69205092  0.72998221  1.0
  F  F8758  1  0.22459285  0.76897400  0.72998221  1.0
  F  F8759  1  0.22459285  0.84589708  0.72998221  1.0
  F  F8760  1  0.22459285  0.92282015  0.72998221  1.0
  F  F8761  1  0.22459285  0.99974323  0.72998221  1.0
  F  F8762  1  0.31550194  0.07666631  0.72998221  1.0
  F  F8763  1  0.31550194  0.15358939  0.72998221  1.0
  F  F8764  1  0.31550194  0.23051246  0.72998221  1.0
  F  F8765  1  0.31550194  0.30743554  0.72998221  1.0
  F  F8766  1  0.31550194  0.38435862  0.72998221  1.0
  F  F8767  1  0.31550194  0.46128169  0.72998221  1.0
  F  F8768  1  0.31550194  0.53820477  0.72998221  1.0
  F  F8769  1  0.31550194  0.61512785  0.72998221  1.0
  F  F8770  1  0.31550194  0.69205092  0.72998221  1.0
  F  F8771  1  0.31550194  0.76897400  0.72998221  1.0
  F  F8772  1  0.31550194  0.84589708  0.72998221  1.0
  F  F8773  1  0.31550194  0.92282015  0.72998221  1.0
  F  F8774  1  0.31550194  0.99974323  0.72998221  1.0
  F  F8775  1  0.40641103  0.07666631  0.72998221  1.0
  F  F8776  1  0.40641103  0.15358939  0.72998221  1.0
  F  F8777  1  0.40641103  0.23051246  0.72998221  1.0
  F  F8778  1  0.40641103  0.30743554  0.72998221  1.0
  F  F8779  1  0.40641103  0.38435862  0.72998221  1.0
  F  F8780  1  0.40641103  0.46128169  0.72998221  1.0
  F  F8781  1  0.40641103  0.53820477  0.72998221  1.0
  F  F8782  1  0.40641103  0.61512785  0.72998221  1.0
  F  F8783  1  0.40641103  0.69205092  0.72998221  1.0
  F  F8784  1  0.40641103  0.76897400  0.72998221  1.0
  F  F8785  1  0.40641103  0.84589708  0.72998221  1.0
  F  F8786  1  0.40641103  0.92282015  0.72998221  1.0
  F  F8787  1  0.40641103  0.99974323  0.72998221  1.0
  F  F8788  1  0.49732012  0.07666631  0.72998221  1.0
  F  F8789  1  0.49732012  0.15358939  0.72998221  1.0
  F  F8790  1  0.49732012  0.23051246  0.72998221  1.0
  F  F8791  1  0.49732012  0.30743554  0.72998221  1.0
  F  F8792  1  0.49732012  0.38435862  0.72998221  1.0
  F  F8793  1  0.49732012  0.46128169  0.72998221  1.0
  F  F8794  1  0.49732012  0.53820477  0.72998221  1.0
  F  F8795  1  0.49732012  0.61512785  0.72998221  1.0
  F  F8796  1  0.49732012  0.69205092  0.72998221  1.0
  F  F8797  1  0.49732012  0.76897400  0.72998221  1.0
  F  F8798  1  0.49732012  0.84589708  0.72998221  1.0
  F  F8799  1  0.49732012  0.92282015  0.72998221  1.0
  F  F8800  1  0.49732012  0.99974323  0.72998221  1.0
  F  F8801  1  0.58822921  0.07666631  0.72998221  1.0
  F  F8802  1  0.58822921  0.15358939  0.72998221  1.0
  F  F8803  1  0.58822921  0.23051246  0.72998221  1.0
  F  F8804  1  0.58822921  0.30743554  0.72998221  1.0
  F  F8805  1  0.58822921  0.38435862  0.72998221  1.0
  F  F8806  1  0.58822921  0.46128169  0.72998221  1.0
  F  F8807  1  0.58822921  0.53820477  0.72998221  1.0
  F  F8808  1  0.58822921  0.61512785  0.72998221  1.0
  F  F8809  1  0.58822921  0.69205092  0.72998221  1.0
  F  F8810  1  0.58822921  0.76897400  0.72998221  1.0
  F  F8811  1  0.58822921  0.84589708  0.72998221  1.0
  F  F8812  1  0.58822921  0.92282015  0.72998221  1.0
  F  F8813  1  0.58822921  0.99974323  0.72998221  1.0
  F  F8814  1  0.67913830  0.07666631  0.72998221  1.0
  F  F8815  1  0.67913830  0.15358939  0.72998221  1.0
  F  F8816  1  0.67913830  0.23051246  0.72998221  1.0
  F  F8817  1  0.67913830  0.30743554  0.72998221  1.0
  F  F8818  1  0.67913830  0.38435862  0.72998221  1.0
  F  F8819  1  0.67913830  0.46128169  0.72998221  1.0
  F  F8820  1  0.67913830  0.53820477  0.72998221  1.0
  F  F8821  1  0.67913830  0.61512785  0.72998221  1.0
  F  F8822  1  0.67913830  0.69205092  0.72998221  1.0
  F  F8823  1  0.67913830  0.76897400  0.72998221  1.0
  F  F8824  1  0.67913830  0.84589708  0.72998221  1.0
  F  F8825  1  0.67913830  0.92282015  0.72998221  1.0
  F  F8826  1  0.67913830  0.99974323  0.72998221  1.0
  F  F8827  1  0.77004740  0.07666631  0.72998221  1.0
  F  F8828  1  0.77004740  0.15358939  0.72998221  1.0
  F  F8829  1  0.77004740  0.23051246  0.72998221  1.0
  F  F8830  1  0.77004740  0.30743554  0.72998221  1.0
  F  F8831  1  0.77004740  0.38435862  0.72998221  1.0
  F  F8832  1  0.77004740  0.46128169  0.72998221  1.0
  F  F8833  1  0.77004740  0.53820477  0.72998221  1.0
  F  F8834  1  0.77004740  0.61512785  0.72998221  1.0
  F  F8835  1  0.77004740  0.69205092  0.72998221  1.0
  F  F8836  1  0.77004740  0.76897400  0.72998221  1.0
  F  F8837  1  0.77004740  0.84589708  0.72998221  1.0
  F  F8838  1  0.77004740  0.92282015  0.72998221  1.0
  F  F8839  1  0.77004740  0.99974323  0.72998221  1.0
  F  F8840  1  0.86095649  0.07666631  0.72998221  1.0
  F  F8841  1  0.86095649  0.15358939  0.72998221  1.0
  F  F8842  1  0.86095649  0.23051246  0.72998221  1.0
  F  F8843  1  0.86095649  0.30743554  0.72998221  1.0
  F  F8844  1  0.86095649  0.38435862  0.72998221  1.0
  F  F8845  1  0.86095649  0.46128169  0.72998221  1.0
  F  F8846  1  0.86095649  0.53820477  0.72998221  1.0
  F  F8847  1  0.86095649  0.61512785  0.72998221  1.0
  F  F8848  1  0.86095649  0.69205092  0.72998221  1.0
  F  F8849  1  0.86095649  0.76897400  0.72998221  1.0
  F  F8850  1  0.86095649  0.84589708  0.72998221  1.0
  F  F8851  1  0.86095649  0.92282015  0.72998221  1.0
  F  F8852  1  0.86095649  0.99974323  0.72998221  1.0
  F  F8853  1  0.95186558  0.07666631  0.72998221  1.0
  F  F8854  1  0.95186558  0.15358939  0.72998221  1.0
  F  F8855  1  0.95186558  0.23051246  0.72998221  1.0
  F  F8856  1  0.95186558  0.30743554  0.72998221  1.0
  F  F8857  1  0.95186558  0.38435862  0.72998221  1.0
  F  F8858  1  0.95186558  0.46128169  0.72998221  1.0
  F  F8859  1  0.95186558  0.53820477  0.72998221  1.0
  F  F8860  1  0.95186558  0.61512785  0.72998221  1.0
  F  F8861  1  0.95186558  0.69205092  0.72998221  1.0
  F  F8862  1  0.95186558  0.76897400  0.72998221  1.0
  F  F8863  1  0.95186558  0.84589708  0.72998221  1.0
  F  F8864  1  0.95186558  0.92282015  0.72998221  1.0
  F  F8865  1  0.95186558  0.99974323  0.72998221  1.0
  F  F8866  1  0.07307770  0.02538426  0.79664887  1.0
  F  F8867  1  0.07307770  0.10230733  0.79664887  1.0
  F  F8868  1  0.07307770  0.17923041  0.79664887  1.0
  F  F8869  1  0.07307770  0.25615349  0.79664887  1.0
  F  F8870  1  0.07307770  0.33307656  0.79664887  1.0
  F  F8871  1  0.07307770  0.40999964  0.79664887  1.0
  F  F8872  1  0.07307770  0.48692272  0.79664887  1.0
  F  F8873  1  0.07307770  0.56384580  0.79664887  1.0
  F  F8874  1  0.07307770  0.64076887  0.79664887  1.0
  F  F8875  1  0.07307770  0.71769195  0.79664887  1.0
  F  F8876  1  0.07307770  0.79461503  0.79664887  1.0
  F  F8877  1  0.07307770  0.87153810  0.79664887  1.0
  F  F8878  1  0.07307770  0.94846118  0.79664887  1.0
  F  F8879  1  0.16398679  0.02538426  0.79664887  1.0
  F  F8880  1  0.16398679  0.10230733  0.79664887  1.0
  F  F8881  1  0.16398679  0.17923041  0.79664887  1.0
  F  F8882  1  0.16398679  0.25615349  0.79664887  1.0
  F  F8883  1  0.16398679  0.33307656  0.79664887  1.0
  F  F8884  1  0.16398679  0.40999964  0.79664887  1.0
  F  F8885  1  0.16398679  0.48692272  0.79664887  1.0
  F  F8886  1  0.16398679  0.56384580  0.79664887  1.0
  F  F8887  1  0.16398679  0.64076887  0.79664887  1.0
  F  F8888  1  0.16398679  0.71769195  0.79664887  1.0
  F  F8889  1  0.16398679  0.79461503  0.79664887  1.0
  F  F8890  1  0.16398679  0.87153810  0.79664887  1.0
  F  F8891  1  0.16398679  0.94846118  0.79664887  1.0
  F  F8892  1  0.25489588  0.02538426  0.79664887  1.0
  F  F8893  1  0.25489588  0.10230733  0.79664887  1.0
  F  F8894  1  0.25489588  0.17923041  0.79664887  1.0
  F  F8895  1  0.25489588  0.25615349  0.79664887  1.0
  F  F8896  1  0.25489588  0.33307656  0.79664887  1.0
  F  F8897  1  0.25489588  0.40999964  0.79664887  1.0
  F  F8898  1  0.25489588  0.48692272  0.79664887  1.0
  F  F8899  1  0.25489588  0.56384580  0.79664887  1.0
  F  F8900  1  0.25489588  0.64076887  0.79664887  1.0
  F  F8901  1  0.25489588  0.71769195  0.79664887  1.0
  F  F8902  1  0.25489588  0.79461503  0.79664887  1.0
  F  F8903  1  0.25489588  0.87153810  0.79664887  1.0
  F  F8904  1  0.25489588  0.94846118  0.79664887  1.0
  F  F8905  1  0.34580497  0.02538426  0.79664887  1.0
  F  F8906  1  0.34580497  0.10230733  0.79664887  1.0
  F  F8907  1  0.34580497  0.17923041  0.79664887  1.0
  F  F8908  1  0.34580497  0.25615349  0.79664887  1.0
  F  F8909  1  0.34580497  0.33307656  0.79664887  1.0
  F  F8910  1  0.34580497  0.40999964  0.79664887  1.0
  F  F8911  1  0.34580497  0.48692272  0.79664887  1.0
  F  F8912  1  0.34580497  0.56384580  0.79664887  1.0
  F  F8913  1  0.34580497  0.64076887  0.79664887  1.0
  F  F8914  1  0.34580497  0.71769195  0.79664887  1.0
  F  F8915  1  0.34580497  0.79461503  0.79664887  1.0
  F  F8916  1  0.34580497  0.87153810  0.79664887  1.0
  F  F8917  1  0.34580497  0.94846118  0.79664887  1.0
  F  F8918  1  0.43671406  0.02538426  0.79664887  1.0
  F  F8919  1  0.43671406  0.10230733  0.79664887  1.0
  F  F8920  1  0.43671406  0.17923041  0.79664887  1.0
  F  F8921  1  0.43671406  0.25615349  0.79664887  1.0
  F  F8922  1  0.43671406  0.33307656  0.79664887  1.0
  F  F8923  1  0.43671406  0.40999964  0.79664887  1.0
  F  F8924  1  0.43671406  0.48692272  0.79664887  1.0
  F  F8925  1  0.43671406  0.56384580  0.79664887  1.0
  F  F8926  1  0.43671406  0.64076887  0.79664887  1.0
  F  F8927  1  0.43671406  0.71769195  0.79664887  1.0
  F  F8928  1  0.43671406  0.79461503  0.79664887  1.0
  F  F8929  1  0.43671406  0.87153810  0.79664887  1.0
  F  F8930  1  0.43671406  0.94846118  0.79664887  1.0
  F  F8931  1  0.52762315  0.02538426  0.79664887  1.0
  F  F8932  1  0.52762315  0.10230733  0.79664887  1.0
  F  F8933  1  0.52762315  0.17923041  0.79664887  1.0
  F  F8934  1  0.52762315  0.25615349  0.79664887  1.0
  F  F8935  1  0.52762315  0.33307656  0.79664887  1.0
  F  F8936  1  0.52762315  0.40999964  0.79664887  1.0
  F  F8937  1  0.52762315  0.48692272  0.79664887  1.0
  F  F8938  1  0.52762315  0.56384580  0.79664887  1.0
  F  F8939  1  0.52762315  0.64076887  0.79664887  1.0
  F  F8940  1  0.52762315  0.71769195  0.79664887  1.0
  F  F8941  1  0.52762315  0.79461503  0.79664887  1.0
  F  F8942  1  0.52762315  0.87153810  0.79664887  1.0
  F  F8943  1  0.52762315  0.94846118  0.79664887  1.0
  F  F8944  1  0.61853224  0.02538426  0.79664887  1.0
  F  F8945  1  0.61853224  0.10230733  0.79664887  1.0
  F  F8946  1  0.61853224  0.17923041  0.79664887  1.0
  F  F8947  1  0.61853224  0.25615349  0.79664887  1.0
  F  F8948  1  0.61853224  0.33307656  0.79664887  1.0
  F  F8949  1  0.61853224  0.40999964  0.79664887  1.0
  F  F8950  1  0.61853224  0.48692272  0.79664887  1.0
  F  F8951  1  0.61853224  0.56384580  0.79664887  1.0
  F  F8952  1  0.61853224  0.64076887  0.79664887  1.0
  F  F8953  1  0.61853224  0.71769195  0.79664887  1.0
  F  F8954  1  0.61853224  0.79461503  0.79664887  1.0
  F  F8955  1  0.61853224  0.87153810  0.79664887  1.0
  F  F8956  1  0.61853224  0.94846118  0.79664887  1.0
  F  F8957  1  0.70944133  0.02538426  0.79664887  1.0
  F  F8958  1  0.70944133  0.10230733  0.79664887  1.0
  F  F8959  1  0.70944133  0.17923041  0.79664887  1.0
  F  F8960  1  0.70944133  0.25615349  0.79664887  1.0
  F  F8961  1  0.70944133  0.33307656  0.79664887  1.0
  F  F8962  1  0.70944133  0.40999964  0.79664887  1.0
  F  F8963  1  0.70944133  0.48692272  0.79664887  1.0
  F  F8964  1  0.70944133  0.56384580  0.79664887  1.0
  F  F8965  1  0.70944133  0.64076887  0.79664887  1.0
  F  F8966  1  0.70944133  0.71769195  0.79664887  1.0
  F  F8967  1  0.70944133  0.79461503  0.79664887  1.0
  F  F8968  1  0.70944133  0.87153810  0.79664887  1.0
  F  F8969  1  0.70944133  0.94846118  0.79664887  1.0
  F  F8970  1  0.80035043  0.02538426  0.79664887  1.0
  F  F8971  1  0.80035043  0.10230733  0.79664887  1.0
  F  F8972  1  0.80035043  0.17923041  0.79664887  1.0
  F  F8973  1  0.80035043  0.25615349  0.79664887  1.0
  F  F8974  1  0.80035043  0.33307656  0.79664887  1.0
  F  F8975  1  0.80035043  0.40999964  0.79664887  1.0
  F  F8976  1  0.80035043  0.48692272  0.79664887  1.0
  F  F8977  1  0.80035043  0.56384580  0.79664887  1.0
  F  F8978  1  0.80035043  0.64076887  0.79664887  1.0
  F  F8979  1  0.80035043  0.71769195  0.79664887  1.0
  F  F8980  1  0.80035043  0.79461503  0.79664887  1.0
  F  F8981  1  0.80035043  0.87153810  0.79664887  1.0
  F  F8982  1  0.80035043  0.94846118  0.79664887  1.0
  F  F8983  1  0.89125952  0.02538426  0.79664887  1.0
  F  F8984  1  0.89125952  0.10230733  0.79664887  1.0
  F  F8985  1  0.89125952  0.17923041  0.79664887  1.0
  F  F8986  1  0.89125952  0.25615349  0.79664887  1.0
  F  F8987  1  0.89125952  0.33307656  0.79664887  1.0
  F  F8988  1  0.89125952  0.40999964  0.79664887  1.0
  F  F8989  1  0.89125952  0.48692272  0.79664887  1.0
  F  F8990  1  0.89125952  0.56384580  0.79664887  1.0
  F  F8991  1  0.89125952  0.64076887  0.79664887  1.0
  F  F8992  1  0.89125952  0.71769195  0.79664887  1.0
  F  F8993  1  0.89125952  0.79461503  0.79664887  1.0
  F  F8994  1  0.89125952  0.87153810  0.79664887  1.0
  F  F8995  1  0.89125952  0.94846118  0.79664887  1.0
  F  F8996  1  0.98216861  0.02538426  0.79664887  1.0
  F  F8997  1  0.98216861  0.10230733  0.79664887  1.0
  F  F8998  1  0.98216861  0.17923041  0.79664887  1.0
  F  F8999  1  0.98216861  0.25615349  0.79664887  1.0
  F  F9000  1  0.98216861  0.33307656  0.79664887  1.0
  F  F9001  1  0.98216861  0.40999964  0.79664887  1.0
  F  F9002  1  0.98216861  0.48692272  0.79664887  1.0
  F  F9003  1  0.98216861  0.56384580  0.79664887  1.0
  F  F9004  1  0.98216861  0.64076887  0.79664887  1.0
  F  F9005  1  0.98216861  0.71769195  0.79664887  1.0
  F  F9006  1  0.98216861  0.79461503  0.79664887  1.0
  F  F9007  1  0.98216861  0.87153810  0.79664887  1.0
  F  F9008  1  0.98216861  0.94846118  0.79664887  1.0
  F  F9009  1  0.01394620  0.01183601  0.66194826  1.0
  F  F9010  1  0.01394620  0.08875909  0.66194826  1.0
  F  F9011  1  0.01394620  0.16568216  0.66194826  1.0
  F  F9012  1  0.01394620  0.24260524  0.66194826  1.0
  F  F9013  1  0.01394620  0.31952832  0.66194826  1.0
  F  F9014  1  0.01394620  0.39645139  0.66194826  1.0
  F  F9015  1  0.01394620  0.47337447  0.66194826  1.0
  F  F9016  1  0.01394620  0.55029755  0.66194826  1.0
  F  F9017  1  0.01394620  0.62722062  0.66194826  1.0
  F  F9018  1  0.01394620  0.70414370  0.66194826  1.0
  F  F9019  1  0.01394620  0.78106678  0.66194826  1.0
  F  F9020  1  0.01394620  0.85798986  0.66194826  1.0
  F  F9021  1  0.01394620  0.93491293  0.66194826  1.0
  F  F9022  1  0.10485529  0.01183601  0.66194826  1.0
  F  F9023  1  0.10485529  0.08875909  0.66194826  1.0
  F  F9024  1  0.10485529  0.16568216  0.66194826  1.0
  F  F9025  1  0.10485529  0.24260524  0.66194826  1.0
  F  F9026  1  0.10485529  0.31952832  0.66194826  1.0
  F  F9027  1  0.10485529  0.39645139  0.66194826  1.0
  F  F9028  1  0.10485529  0.47337447  0.66194826  1.0
  F  F9029  1  0.10485529  0.55029755  0.66194826  1.0
  F  F9030  1  0.10485529  0.62722062  0.66194826  1.0
  F  F9031  1  0.10485529  0.70414370  0.66194826  1.0
  F  F9032  1  0.10485529  0.78106678  0.66194826  1.0
  F  F9033  1  0.10485529  0.85798986  0.66194826  1.0
  F  F9034  1  0.10485529  0.93491293  0.66194826  1.0
  F  F9035  1  0.19576438  0.01183601  0.66194826  1.0
  F  F9036  1  0.19576438  0.08875909  0.66194826  1.0
  F  F9037  1  0.19576438  0.16568216  0.66194826  1.0
  F  F9038  1  0.19576438  0.24260524  0.66194826  1.0
  F  F9039  1  0.19576438  0.31952832  0.66194826  1.0
  F  F9040  1  0.19576438  0.39645139  0.66194826  1.0
  F  F9041  1  0.19576438  0.47337447  0.66194826  1.0
  F  F9042  1  0.19576438  0.55029755  0.66194826  1.0
  F  F9043  1  0.19576438  0.62722062  0.66194826  1.0
  F  F9044  1  0.19576438  0.70414370  0.66194826  1.0
  F  F9045  1  0.19576438  0.78106678  0.66194826  1.0
  F  F9046  1  0.19576438  0.85798986  0.66194826  1.0
  F  F9047  1  0.19576438  0.93491293  0.66194826  1.0
  F  F9048  1  0.28667347  0.01183601  0.66194826  1.0
  F  F9049  1  0.28667347  0.08875909  0.66194826  1.0
  F  F9050  1  0.28667347  0.16568216  0.66194826  1.0
  F  F9051  1  0.28667347  0.24260524  0.66194826  1.0
  F  F9052  1  0.28667347  0.31952832  0.66194826  1.0
  F  F9053  1  0.28667347  0.39645139  0.66194826  1.0
  F  F9054  1  0.28667347  0.47337447  0.66194826  1.0
  F  F9055  1  0.28667347  0.55029755  0.66194826  1.0
  F  F9056  1  0.28667347  0.62722062  0.66194826  1.0
  F  F9057  1  0.28667347  0.70414370  0.66194826  1.0
  F  F9058  1  0.28667347  0.78106678  0.66194826  1.0
  F  F9059  1  0.28667347  0.85798986  0.66194826  1.0
  F  F9060  1  0.28667347  0.93491293  0.66194826  1.0
  F  F9061  1  0.37758256  0.01183601  0.66194826  1.0
  F  F9062  1  0.37758256  0.08875909  0.66194826  1.0
  F  F9063  1  0.37758256  0.16568216  0.66194826  1.0
  F  F9064  1  0.37758256  0.24260524  0.66194826  1.0
  F  F9065  1  0.37758256  0.31952832  0.66194826  1.0
  F  F9066  1  0.37758256  0.39645139  0.66194826  1.0
  F  F9067  1  0.37758256  0.47337447  0.66194826  1.0
  F  F9068  1  0.37758256  0.55029755  0.66194826  1.0
  F  F9069  1  0.37758256  0.62722062  0.66194826  1.0
  F  F9070  1  0.37758256  0.70414370  0.66194826  1.0
  F  F9071  1  0.37758256  0.78106678  0.66194826  1.0
  F  F9072  1  0.37758256  0.85798986  0.66194826  1.0
  F  F9073  1  0.37758256  0.93491293  0.66194826  1.0
  F  F9074  1  0.46849166  0.01183601  0.66194826  1.0
  F  F9075  1  0.46849166  0.08875909  0.66194826  1.0
  F  F9076  1  0.46849166  0.16568216  0.66194826  1.0
  F  F9077  1  0.46849166  0.24260524  0.66194826  1.0
  F  F9078  1  0.46849166  0.31952832  0.66194826  1.0
  F  F9079  1  0.46849166  0.39645139  0.66194826  1.0
  F  F9080  1  0.46849166  0.47337447  0.66194826  1.0
  F  F9081  1  0.46849166  0.55029755  0.66194826  1.0
  F  F9082  1  0.46849166  0.62722062  0.66194826  1.0
  F  F9083  1  0.46849166  0.70414370  0.66194826  1.0
  F  F9084  1  0.46849166  0.78106678  0.66194826  1.0
  F  F9085  1  0.46849166  0.85798986  0.66194826  1.0
  F  F9086  1  0.46849166  0.93491293  0.66194826  1.0
  F  F9087  1  0.55940075  0.01183601  0.66194826  1.0
  F  F9088  1  0.55940075  0.08875909  0.66194826  1.0
  F  F9089  1  0.55940075  0.16568216  0.66194826  1.0
  F  F9090  1  0.55940075  0.24260524  0.66194826  1.0
  F  F9091  1  0.55940075  0.31952832  0.66194826  1.0
  F  F9092  1  0.55940075  0.39645139  0.66194826  1.0
  F  F9093  1  0.55940075  0.47337447  0.66194826  1.0
  F  F9094  1  0.55940075  0.55029755  0.66194826  1.0
  F  F9095  1  0.55940075  0.62722062  0.66194826  1.0
  F  F9096  1  0.55940075  0.70414370  0.66194826  1.0
  F  F9097  1  0.55940075  0.78106678  0.66194826  1.0
  F  F9098  1  0.55940075  0.85798986  0.66194826  1.0
  F  F9099  1  0.55940075  0.93491293  0.66194826  1.0
  F  F9100  1  0.65030984  0.01183601  0.66194826  1.0
  F  F9101  1  0.65030984  0.08875909  0.66194826  1.0
  F  F9102  1  0.65030984  0.16568216  0.66194826  1.0
  F  F9103  1  0.65030984  0.24260524  0.66194826  1.0
  F  F9104  1  0.65030984  0.31952832  0.66194826  1.0
  F  F9105  1  0.65030984  0.39645139  0.66194826  1.0
  F  F9106  1  0.65030984  0.47337447  0.66194826  1.0
  F  F9107  1  0.65030984  0.55029755  0.66194826  1.0
  F  F9108  1  0.65030984  0.62722062  0.66194826  1.0
  F  F9109  1  0.65030984  0.70414370  0.66194826  1.0
  F  F9110  1  0.65030984  0.78106678  0.66194826  1.0
  F  F9111  1  0.65030984  0.85798986  0.66194826  1.0
  F  F9112  1  0.65030984  0.93491293  0.66194826  1.0
  F  F9113  1  0.74121893  0.01183601  0.66194826  1.0
  F  F9114  1  0.74121893  0.08875909  0.66194826  1.0
  F  F9115  1  0.74121893  0.16568216  0.66194826  1.0
  F  F9116  1  0.74121893  0.24260524  0.66194826  1.0
  F  F9117  1  0.74121893  0.31952832  0.66194826  1.0
  F  F9118  1  0.74121893  0.39645139  0.66194826  1.0
  F  F9119  1  0.74121893  0.47337447  0.66194826  1.0
  F  F9120  1  0.74121893  0.55029755  0.66194826  1.0
  F  F9121  1  0.74121893  0.62722062  0.66194826  1.0
  F  F9122  1  0.74121893  0.70414370  0.66194826  1.0
  F  F9123  1  0.74121893  0.78106678  0.66194826  1.0
  F  F9124  1  0.74121893  0.85798986  0.66194826  1.0
  F  F9125  1  0.74121893  0.93491293  0.66194826  1.0
  F  F9126  1  0.83212802  0.01183601  0.66194826  1.0
  F  F9127  1  0.83212802  0.08875909  0.66194826  1.0
  F  F9128  1  0.83212802  0.16568216  0.66194826  1.0
  F  F9129  1  0.83212802  0.24260524  0.66194826  1.0
  F  F9130  1  0.83212802  0.31952832  0.66194826  1.0
  F  F9131  1  0.83212802  0.39645139  0.66194826  1.0
  F  F9132  1  0.83212802  0.47337447  0.66194826  1.0
  F  F9133  1  0.83212802  0.55029755  0.66194826  1.0
  F  F9134  1  0.83212802  0.62722062  0.66194826  1.0
  F  F9135  1  0.83212802  0.70414370  0.66194826  1.0
  F  F9136  1  0.83212802  0.78106678  0.66194826  1.0
  F  F9137  1  0.83212802  0.85798986  0.66194826  1.0
  F  F9138  1  0.83212802  0.93491293  0.66194826  1.0
  F  F9139  1  0.92303711  0.01183601  0.66194826  1.0
  F  F9140  1  0.92303711  0.08875909  0.66194826  1.0
  F  F9141  1  0.92303711  0.16568216  0.66194826  1.0
  F  F9142  1  0.92303711  0.24260524  0.66194826  1.0
  F  F9143  1  0.92303711  0.31952832  0.66194826  1.0
  F  F9144  1  0.92303711  0.39645139  0.66194826  1.0
  F  F9145  1  0.92303711  0.47337447  0.66194826  1.0
  F  F9146  1  0.92303711  0.55029755  0.66194826  1.0
  F  F9147  1  0.92303711  0.62722062  0.66194826  1.0
  F  F9148  1  0.92303711  0.70414370  0.66194826  1.0
  F  F9149  1  0.92303711  0.78106678  0.66194826  1.0
  F  F9150  1  0.92303711  0.85798986  0.66194826  1.0
  F  F9151  1  0.92303711  0.93491293  0.66194826  1.0
  F  F9152  1  0.04424923  0.03747704  0.72861493  1.0
  F  F9153  1  0.04424923  0.11440011  0.72861493  1.0
  F  F9154  1  0.04424923  0.19132319  0.72861493  1.0
  F  F9155  1  0.04424923  0.26824627  0.72861493  1.0
  F  F9156  1  0.04424923  0.34516934  0.72861493  1.0
  F  F9157  1  0.04424923  0.42209242  0.72861493  1.0
  F  F9158  1  0.04424923  0.49901550  0.72861493  1.0
  F  F9159  1  0.04424923  0.57593857  0.72861493  1.0
  F  F9160  1  0.04424923  0.65286165  0.72861493  1.0
  F  F9161  1  0.04424923  0.72978473  0.72861493  1.0
  F  F9162  1  0.04424923  0.80670780  0.72861493  1.0
  F  F9163  1  0.04424923  0.88363088  0.72861493  1.0
  F  F9164  1  0.04424923  0.96055396  0.72861493  1.0
  F  F9165  1  0.13515832  0.03747704  0.72861493  1.0
  F  F9166  1  0.13515832  0.11440011  0.72861493  1.0
  F  F9167  1  0.13515832  0.19132319  0.72861493  1.0
  F  F9168  1  0.13515832  0.26824627  0.72861493  1.0
  F  F9169  1  0.13515832  0.34516934  0.72861493  1.0
  F  F9170  1  0.13515832  0.42209242  0.72861493  1.0
  F  F9171  1  0.13515832  0.49901550  0.72861493  1.0
  F  F9172  1  0.13515832  0.57593857  0.72861493  1.0
  F  F9173  1  0.13515832  0.65286165  0.72861493  1.0
  F  F9174  1  0.13515832  0.72978473  0.72861493  1.0
  F  F9175  1  0.13515832  0.80670780  0.72861493  1.0
  F  F9176  1  0.13515832  0.88363088  0.72861493  1.0
  F  F9177  1  0.13515832  0.96055396  0.72861493  1.0
  F  F9178  1  0.22606741  0.03747704  0.72861493  1.0
  F  F9179  1  0.22606741  0.11440011  0.72861493  1.0
  F  F9180  1  0.22606741  0.19132319  0.72861493  1.0
  F  F9181  1  0.22606741  0.26824627  0.72861493  1.0
  F  F9182  1  0.22606741  0.34516934  0.72861493  1.0
  F  F9183  1  0.22606741  0.42209242  0.72861493  1.0
  F  F9184  1  0.22606741  0.49901550  0.72861493  1.0
  F  F9185  1  0.22606741  0.57593857  0.72861493  1.0
  F  F9186  1  0.22606741  0.65286165  0.72861493  1.0
  F  F9187  1  0.22606741  0.72978473  0.72861493  1.0
  F  F9188  1  0.22606741  0.80670780  0.72861493  1.0
  F  F9189  1  0.22606741  0.88363088  0.72861493  1.0
  F  F9190  1  0.22606741  0.96055396  0.72861493  1.0
  F  F9191  1  0.31697650  0.03747704  0.72861493  1.0
  F  F9192  1  0.31697650  0.11440011  0.72861493  1.0
  F  F9193  1  0.31697650  0.19132319  0.72861493  1.0
  F  F9194  1  0.31697650  0.26824627  0.72861493  1.0
  F  F9195  1  0.31697650  0.34516934  0.72861493  1.0
  F  F9196  1  0.31697650  0.42209242  0.72861493  1.0
  F  F9197  1  0.31697650  0.49901550  0.72861493  1.0
  F  F9198  1  0.31697650  0.57593857  0.72861493  1.0
  F  F9199  1  0.31697650  0.65286165  0.72861493  1.0
  F  F9200  1  0.31697650  0.72978473  0.72861493  1.0
  F  F9201  1  0.31697650  0.80670780  0.72861493  1.0
  F  F9202  1  0.31697650  0.88363088  0.72861493  1.0
  F  F9203  1  0.31697650  0.96055396  0.72861493  1.0
  F  F9204  1  0.40788560  0.03747704  0.72861493  1.0
  F  F9205  1  0.40788560  0.11440011  0.72861493  1.0
  F  F9206  1  0.40788560  0.19132319  0.72861493  1.0
  F  F9207  1  0.40788560  0.26824627  0.72861493  1.0
  F  F9208  1  0.40788560  0.34516934  0.72861493  1.0
  F  F9209  1  0.40788560  0.42209242  0.72861493  1.0
  F  F9210  1  0.40788560  0.49901550  0.72861493  1.0
  F  F9211  1  0.40788560  0.57593857  0.72861493  1.0
  F  F9212  1  0.40788560  0.65286165  0.72861493  1.0
  F  F9213  1  0.40788560  0.72978473  0.72861493  1.0
  F  F9214  1  0.40788560  0.80670780  0.72861493  1.0
  F  F9215  1  0.40788560  0.88363088  0.72861493  1.0
  F  F9216  1  0.40788560  0.96055396  0.72861493  1.0
  F  F9217  1  0.49879469  0.03747704  0.72861493  1.0
  F  F9218  1  0.49879469  0.11440011  0.72861493  1.0
  F  F9219  1  0.49879469  0.19132319  0.72861493  1.0
  F  F9220  1  0.49879469  0.26824627  0.72861493  1.0
  F  F9221  1  0.49879469  0.34516934  0.72861493  1.0
  F  F9222  1  0.49879469  0.42209242  0.72861493  1.0
  F  F9223  1  0.49879469  0.49901550  0.72861493  1.0
  F  F9224  1  0.49879469  0.57593857  0.72861493  1.0
  F  F9225  1  0.49879469  0.65286165  0.72861493  1.0
  F  F9226  1  0.49879469  0.72978473  0.72861493  1.0
  F  F9227  1  0.49879469  0.80670780  0.72861493  1.0
  F  F9228  1  0.49879469  0.88363088  0.72861493  1.0
  F  F9229  1  0.49879469  0.96055396  0.72861493  1.0
  F  F9230  1  0.58970378  0.03747704  0.72861493  1.0
  F  F9231  1  0.58970378  0.11440011  0.72861493  1.0
  F  F9232  1  0.58970378  0.19132319  0.72861493  1.0
  F  F9233  1  0.58970378  0.26824627  0.72861493  1.0
  F  F9234  1  0.58970378  0.34516934  0.72861493  1.0
  F  F9235  1  0.58970378  0.42209242  0.72861493  1.0
  F  F9236  1  0.58970378  0.49901550  0.72861493  1.0
  F  F9237  1  0.58970378  0.57593857  0.72861493  1.0
  F  F9238  1  0.58970378  0.65286165  0.72861493  1.0
  F  F9239  1  0.58970378  0.72978473  0.72861493  1.0
  F  F9240  1  0.58970378  0.80670780  0.72861493  1.0
  F  F9241  1  0.58970378  0.88363088  0.72861493  1.0
  F  F9242  1  0.58970378  0.96055396  0.72861493  1.0
  F  F9243  1  0.68061287  0.03747704  0.72861493  1.0
  F  F9244  1  0.68061287  0.11440011  0.72861493  1.0
  F  F9245  1  0.68061287  0.19132319  0.72861493  1.0
  F  F9246  1  0.68061287  0.26824627  0.72861493  1.0
  F  F9247  1  0.68061287  0.34516934  0.72861493  1.0
  F  F9248  1  0.68061287  0.42209242  0.72861493  1.0
  F  F9249  1  0.68061287  0.49901550  0.72861493  1.0
  F  F9250  1  0.68061287  0.57593857  0.72861493  1.0
  F  F9251  1  0.68061287  0.65286165  0.72861493  1.0
  F  F9252  1  0.68061287  0.72978473  0.72861493  1.0
  F  F9253  1  0.68061287  0.80670780  0.72861493  1.0
  F  F9254  1  0.68061287  0.88363088  0.72861493  1.0
  F  F9255  1  0.68061287  0.96055396  0.72861493  1.0
  F  F9256  1  0.77152196  0.03747704  0.72861493  1.0
  F  F9257  1  0.77152196  0.11440011  0.72861493  1.0
  F  F9258  1  0.77152196  0.19132319  0.72861493  1.0
  F  F9259  1  0.77152196  0.26824627  0.72861493  1.0
  F  F9260  1  0.77152196  0.34516934  0.72861493  1.0
  F  F9261  1  0.77152196  0.42209242  0.72861493  1.0
  F  F9262  1  0.77152196  0.49901550  0.72861493  1.0
  F  F9263  1  0.77152196  0.57593857  0.72861493  1.0
  F  F9264  1  0.77152196  0.65286165  0.72861493  1.0
  F  F9265  1  0.77152196  0.72978473  0.72861493  1.0
  F  F9266  1  0.77152196  0.80670780  0.72861493  1.0
  F  F9267  1  0.77152196  0.88363088  0.72861493  1.0
  F  F9268  1  0.77152196  0.96055396  0.72861493  1.0
  F  F9269  1  0.86243105  0.03747704  0.72861493  1.0
  F  F9270  1  0.86243105  0.11440011  0.72861493  1.0
  F  F9271  1  0.86243105  0.19132319  0.72861493  1.0
  F  F9272  1  0.86243105  0.26824627  0.72861493  1.0
  F  F9273  1  0.86243105  0.34516934  0.72861493  1.0
  F  F9274  1  0.86243105  0.42209242  0.72861493  1.0
  F  F9275  1  0.86243105  0.49901550  0.72861493  1.0
  F  F9276  1  0.86243105  0.57593857  0.72861493  1.0
  F  F9277  1  0.86243105  0.65286165  0.72861493  1.0
  F  F9278  1  0.86243105  0.72978473  0.72861493  1.0
  F  F9279  1  0.86243105  0.80670780  0.72861493  1.0
  F  F9280  1  0.86243105  0.88363088  0.72861493  1.0
  F  F9281  1  0.86243105  0.96055396  0.72861493  1.0
  F  F9282  1  0.95334014  0.03747704  0.72861493  1.0
  F  F9283  1  0.95334014  0.11440011  0.72861493  1.0
  F  F9284  1  0.95334014  0.19132319  0.72861493  1.0
  F  F9285  1  0.95334014  0.26824627  0.72861493  1.0
  F  F9286  1  0.95334014  0.34516934  0.72861493  1.0
  F  F9287  1  0.95334014  0.42209242  0.72861493  1.0
  F  F9288  1  0.95334014  0.49901550  0.72861493  1.0
  F  F9289  1  0.95334014  0.57593857  0.72861493  1.0
  F  F9290  1  0.95334014  0.65286165  0.72861493  1.0
  F  F9291  1  0.95334014  0.72978473  0.72861493  1.0
  F  F9292  1  0.95334014  0.80670780  0.72861493  1.0
  F  F9293  1  0.95334014  0.88363088  0.72861493  1.0
  F  F9294  1  0.95334014  0.96055396  0.72861493  1.0
  F  F9295  1  0.07455226  0.06311806  0.79528160  1.0
  F  F9296  1  0.07455226  0.14004114  0.79528160  1.0
  F  F9297  1  0.07455226  0.21696421  0.79528160  1.0
  F  F9298  1  0.07455226  0.29388729  0.79528160  1.0
  F  F9299  1  0.07455226  0.37081037  0.79528160  1.0
  F  F9300  1  0.07455226  0.44773345  0.79528160  1.0
  F  F9301  1  0.07455226  0.52465652  0.79528160  1.0
  F  F9302  1  0.07455226  0.60157960  0.79528160  1.0
  F  F9303  1  0.07455226  0.67850268  0.79528160  1.0
  F  F9304  1  0.07455226  0.75542575  0.79528160  1.0
  F  F9305  1  0.07455226  0.83234883  0.79528160  1.0
  F  F9306  1  0.07455226  0.90927191  0.79528160  1.0
  F  F9307  1  0.07455226  0.98619498  0.79528160  1.0
  F  F9308  1  0.16546135  0.06311806  0.79528160  1.0
  F  F9309  1  0.16546135  0.14004114  0.79528160  1.0
  F  F9310  1  0.16546135  0.21696421  0.79528160  1.0
  F  F9311  1  0.16546135  0.29388729  0.79528160  1.0
  F  F9312  1  0.16546135  0.37081037  0.79528160  1.0
  F  F9313  1  0.16546135  0.44773345  0.79528160  1.0
  F  F9314  1  0.16546135  0.52465652  0.79528160  1.0
  F  F9315  1  0.16546135  0.60157960  0.79528160  1.0
  F  F9316  1  0.16546135  0.67850268  0.79528160  1.0
  F  F9317  1  0.16546135  0.75542575  0.79528160  1.0
  F  F9318  1  0.16546135  0.83234883  0.79528160  1.0
  F  F9319  1  0.16546135  0.90927191  0.79528160  1.0
  F  F9320  1  0.16546135  0.98619498  0.79528160  1.0
  F  F9321  1  0.25637044  0.06311806  0.79528160  1.0
  F  F9322  1  0.25637044  0.14004114  0.79528160  1.0
  F  F9323  1  0.25637044  0.21696421  0.79528160  1.0
  F  F9324  1  0.25637044  0.29388729  0.79528160  1.0
  F  F9325  1  0.25637044  0.37081037  0.79528160  1.0
  F  F9326  1  0.25637044  0.44773345  0.79528160  1.0
  F  F9327  1  0.25637044  0.52465652  0.79528160  1.0
  F  F9328  1  0.25637044  0.60157960  0.79528160  1.0
  F  F9329  1  0.25637044  0.67850268  0.79528160  1.0
  F  F9330  1  0.25637044  0.75542575  0.79528160  1.0
  F  F9331  1  0.25637044  0.83234883  0.79528160  1.0
  F  F9332  1  0.25637044  0.90927191  0.79528160  1.0
  F  F9333  1  0.25637044  0.98619498  0.79528160  1.0
  F  F9334  1  0.34727953  0.06311806  0.79528160  1.0
  F  F9335  1  0.34727953  0.14004114  0.79528160  1.0
  F  F9336  1  0.34727953  0.21696421  0.79528160  1.0
  F  F9337  1  0.34727953  0.29388729  0.79528160  1.0
  F  F9338  1  0.34727953  0.37081037  0.79528160  1.0
  F  F9339  1  0.34727953  0.44773345  0.79528160  1.0
  F  F9340  1  0.34727953  0.52465652  0.79528160  1.0
  F  F9341  1  0.34727953  0.60157960  0.79528160  1.0
  F  F9342  1  0.34727953  0.67850268  0.79528160  1.0
  F  F9343  1  0.34727953  0.75542575  0.79528160  1.0
  F  F9344  1  0.34727953  0.83234883  0.79528160  1.0
  F  F9345  1  0.34727953  0.90927191  0.79528160  1.0
  F  F9346  1  0.34727953  0.98619498  0.79528160  1.0
  F  F9347  1  0.43818863  0.06311806  0.79528160  1.0
  F  F9348  1  0.43818863  0.14004114  0.79528160  1.0
  F  F9349  1  0.43818863  0.21696421  0.79528160  1.0
  F  F9350  1  0.43818863  0.29388729  0.79528160  1.0
  F  F9351  1  0.43818863  0.37081037  0.79528160  1.0
  F  F9352  1  0.43818863  0.44773345  0.79528160  1.0
  F  F9353  1  0.43818863  0.52465652  0.79528160  1.0
  F  F9354  1  0.43818863  0.60157960  0.79528160  1.0
  F  F9355  1  0.43818863  0.67850268  0.79528160  1.0
  F  F9356  1  0.43818863  0.75542575  0.79528160  1.0
  F  F9357  1  0.43818863  0.83234883  0.79528160  1.0
  F  F9358  1  0.43818863  0.90927191  0.79528160  1.0
  F  F9359  1  0.43818863  0.98619498  0.79528160  1.0
  F  F9360  1  0.52909772  0.06311806  0.79528160  1.0
  F  F9361  1  0.52909772  0.14004114  0.79528160  1.0
  F  F9362  1  0.52909772  0.21696421  0.79528160  1.0
  F  F9363  1  0.52909772  0.29388729  0.79528160  1.0
  F  F9364  1  0.52909772  0.37081037  0.79528160  1.0
  F  F9365  1  0.52909772  0.44773345  0.79528160  1.0
  F  F9366  1  0.52909772  0.52465652  0.79528160  1.0
  F  F9367  1  0.52909772  0.60157960  0.79528160  1.0
  F  F9368  1  0.52909772  0.67850268  0.79528160  1.0
  F  F9369  1  0.52909772  0.75542575  0.79528160  1.0
  F  F9370  1  0.52909772  0.83234883  0.79528160  1.0
  F  F9371  1  0.52909772  0.90927191  0.79528160  1.0
  F  F9372  1  0.52909772  0.98619498  0.79528160  1.0
  F  F9373  1  0.62000681  0.06311806  0.79528160  1.0
  F  F9374  1  0.62000681  0.14004114  0.79528160  1.0
  F  F9375  1  0.62000681  0.21696421  0.79528160  1.0
  F  F9376  1  0.62000681  0.29388729  0.79528160  1.0
  F  F9377  1  0.62000681  0.37081037  0.79528160  1.0
  F  F9378  1  0.62000681  0.44773345  0.79528160  1.0
  F  F9379  1  0.62000681  0.52465652  0.79528160  1.0
  F  F9380  1  0.62000681  0.60157960  0.79528160  1.0
  F  F9381  1  0.62000681  0.67850268  0.79528160  1.0
  F  F9382  1  0.62000681  0.75542575  0.79528160  1.0
  F  F9383  1  0.62000681  0.83234883  0.79528160  1.0
  F  F9384  1  0.62000681  0.90927191  0.79528160  1.0
  F  F9385  1  0.62000681  0.98619498  0.79528160  1.0
  F  F9386  1  0.71091590  0.06311806  0.79528160  1.0
  F  F9387  1  0.71091590  0.14004114  0.79528160  1.0
  F  F9388  1  0.71091590  0.21696421  0.79528160  1.0
  F  F9389  1  0.71091590  0.29388729  0.79528160  1.0
  F  F9390  1  0.71091590  0.37081037  0.79528160  1.0
  F  F9391  1  0.71091590  0.44773345  0.79528160  1.0
  F  F9392  1  0.71091590  0.52465652  0.79528160  1.0
  F  F9393  1  0.71091590  0.60157960  0.79528160  1.0
  F  F9394  1  0.71091590  0.67850268  0.79528160  1.0
  F  F9395  1  0.71091590  0.75542575  0.79528160  1.0
  F  F9396  1  0.71091590  0.83234883  0.79528160  1.0
  F  F9397  1  0.71091590  0.90927191  0.79528160  1.0
  F  F9398  1  0.71091590  0.98619498  0.79528160  1.0
  F  F9399  1  0.80182499  0.06311806  0.79528160  1.0
  F  F9400  1  0.80182499  0.14004114  0.79528160  1.0
  F  F9401  1  0.80182499  0.21696421  0.79528160  1.0
  F  F9402  1  0.80182499  0.29388729  0.79528160  1.0
  F  F9403  1  0.80182499  0.37081037  0.79528160  1.0
  F  F9404  1  0.80182499  0.44773345  0.79528160  1.0
  F  F9405  1  0.80182499  0.52465652  0.79528160  1.0
  F  F9406  1  0.80182499  0.60157960  0.79528160  1.0
  F  F9407  1  0.80182499  0.67850268  0.79528160  1.0
  F  F9408  1  0.80182499  0.75542575  0.79528160  1.0
  F  F9409  1  0.80182499  0.83234883  0.79528160  1.0
  F  F9410  1  0.80182499  0.90927191  0.79528160  1.0
  F  F9411  1  0.80182499  0.98619498  0.79528160  1.0
  F  F9412  1  0.89273408  0.06311806  0.79528160  1.0
  F  F9413  1  0.89273408  0.14004114  0.79528160  1.0
  F  F9414  1  0.89273408  0.21696421  0.79528160  1.0
  F  F9415  1  0.89273408  0.29388729  0.79528160  1.0
  F  F9416  1  0.89273408  0.37081037  0.79528160  1.0
  F  F9417  1  0.89273408  0.44773345  0.79528160  1.0
  F  F9418  1  0.89273408  0.52465652  0.79528160  1.0
  F  F9419  1  0.89273408  0.60157960  0.79528160  1.0
  F  F9420  1  0.89273408  0.67850268  0.79528160  1.0
  F  F9421  1  0.89273408  0.75542575  0.79528160  1.0
  F  F9422  1  0.89273408  0.83234883  0.79528160  1.0
  F  F9423  1  0.89273408  0.90927191  0.79528160  1.0
  F  F9424  1  0.89273408  0.98619498  0.79528160  1.0
  F  F9425  1  0.98364317  0.06311806  0.79528160  1.0
  F  F9426  1  0.98364317  0.14004114  0.79528160  1.0
  F  F9427  1  0.98364317  0.21696421  0.79528160  1.0
  F  F9428  1  0.98364317  0.29388729  0.79528160  1.0
  F  F9429  1  0.98364317  0.37081037  0.79528160  1.0
  F  F9430  1  0.98364317  0.44773345  0.79528160  1.0
  F  F9431  1  0.98364317  0.52465652  0.79528160  1.0
  F  F9432  1  0.98364317  0.60157960  0.79528160  1.0
  F  F9433  1  0.98364317  0.67850268  0.79528160  1.0
  F  F9434  1  0.98364317  0.75542575  0.79528160  1.0
  F  F9435  1  0.98364317  0.83234883  0.79528160  1.0
  F  F9436  1  0.98364317  0.90927191  0.79528160  1.0
  F  F9437  1  0.98364317  0.98619498  0.79528160  1.0
  F  F9438  1  0.07843745  0.02589779  0.69731196  1.0
  F  F9439  1  0.07843745  0.10282087  0.69731196  1.0
  F  F9440  1  0.07843745  0.17974395  0.69731196  1.0
  F  F9441  1  0.07843745  0.25666703  0.69731196  1.0
  F  F9442  1  0.07843745  0.33359010  0.69731196  1.0
  F  F9443  1  0.07843745  0.41051318  0.69731196  1.0
  F  F9444  1  0.07843745  0.48743626  0.69731196  1.0
  F  F9445  1  0.07843745  0.56435933  0.69731196  1.0
  F  F9446  1  0.07843745  0.64128241  0.69731196  1.0
  F  F9447  1  0.07843745  0.71820549  0.69731196  1.0
  F  F9448  1  0.07843745  0.79512856  0.69731196  1.0
  F  F9449  1  0.07843745  0.87205164  0.69731196  1.0
  F  F9450  1  0.07843745  0.94897472  0.69731196  1.0
  F  F9451  1  0.16934654  0.02589779  0.69731196  1.0
  F  F9452  1  0.16934654  0.10282087  0.69731196  1.0
  F  F9453  1  0.16934654  0.17974395  0.69731196  1.0
  F  F9454  1  0.16934654  0.25666703  0.69731196  1.0
  F  F9455  1  0.16934654  0.33359010  0.69731196  1.0
  F  F9456  1  0.16934654  0.41051318  0.69731196  1.0
  F  F9457  1  0.16934654  0.48743626  0.69731196  1.0
  F  F9458  1  0.16934654  0.56435933  0.69731196  1.0
  F  F9459  1  0.16934654  0.64128241  0.69731196  1.0
  F  F9460  1  0.16934654  0.71820549  0.69731196  1.0
  F  F9461  1  0.16934654  0.79512856  0.69731196  1.0
  F  F9462  1  0.16934654  0.87205164  0.69731196  1.0
  F  F9463  1  0.16934654  0.94897472  0.69731196  1.0
  F  F9464  1  0.26025564  0.02589779  0.69731196  1.0
  F  F9465  1  0.26025564  0.10282087  0.69731196  1.0
  F  F9466  1  0.26025564  0.17974395  0.69731196  1.0
  F  F9467  1  0.26025564  0.25666703  0.69731196  1.0
  F  F9468  1  0.26025564  0.33359010  0.69731196  1.0
  F  F9469  1  0.26025564  0.41051318  0.69731196  1.0
  F  F9470  1  0.26025564  0.48743626  0.69731196  1.0
  F  F9471  1  0.26025564  0.56435933  0.69731196  1.0
  F  F9472  1  0.26025564  0.64128241  0.69731196  1.0
  F  F9473  1  0.26025564  0.71820549  0.69731196  1.0
  F  F9474  1  0.26025564  0.79512856  0.69731196  1.0
  F  F9475  1  0.26025564  0.87205164  0.69731196  1.0
  F  F9476  1  0.26025564  0.94897472  0.69731196  1.0
  F  F9477  1  0.35116473  0.02589779  0.69731196  1.0
  F  F9478  1  0.35116473  0.10282087  0.69731196  1.0
  F  F9479  1  0.35116473  0.17974395  0.69731196  1.0
  F  F9480  1  0.35116473  0.25666703  0.69731196  1.0
  F  F9481  1  0.35116473  0.33359010  0.69731196  1.0
  F  F9482  1  0.35116473  0.41051318  0.69731196  1.0
  F  F9483  1  0.35116473  0.48743626  0.69731196  1.0
  F  F9484  1  0.35116473  0.56435933  0.69731196  1.0
  F  F9485  1  0.35116473  0.64128241  0.69731196  1.0
  F  F9486  1  0.35116473  0.71820549  0.69731196  1.0
  F  F9487  1  0.35116473  0.79512856  0.69731196  1.0
  F  F9488  1  0.35116473  0.87205164  0.69731196  1.0
  F  F9489  1  0.35116473  0.94897472  0.69731196  1.0
  F  F9490  1  0.44207382  0.02589779  0.69731196  1.0
  F  F9491  1  0.44207382  0.10282087  0.69731196  1.0
  F  F9492  1  0.44207382  0.17974395  0.69731196  1.0
  F  F9493  1  0.44207382  0.25666703  0.69731196  1.0
  F  F9494  1  0.44207382  0.33359010  0.69731196  1.0
  F  F9495  1  0.44207382  0.41051318  0.69731196  1.0
  F  F9496  1  0.44207382  0.48743626  0.69731196  1.0
  F  F9497  1  0.44207382  0.56435933  0.69731196  1.0
  F  F9498  1  0.44207382  0.64128241  0.69731196  1.0
  F  F9499  1  0.44207382  0.71820549  0.69731196  1.0
  F  F9500  1  0.44207382  0.79512856  0.69731196  1.0
  F  F9501  1  0.44207382  0.87205164  0.69731196  1.0
  F  F9502  1  0.44207382  0.94897472  0.69731196  1.0
  F  F9503  1  0.53298291  0.02589779  0.69731196  1.0
  F  F9504  1  0.53298291  0.10282087  0.69731196  1.0
  F  F9505  1  0.53298291  0.17974395  0.69731196  1.0
  F  F9506  1  0.53298291  0.25666703  0.69731196  1.0
  F  F9507  1  0.53298291  0.33359010  0.69731196  1.0
  F  F9508  1  0.53298291  0.41051318  0.69731196  1.0
  F  F9509  1  0.53298291  0.48743626  0.69731196  1.0
  F  F9510  1  0.53298291  0.56435933  0.69731196  1.0
  F  F9511  1  0.53298291  0.64128241  0.69731196  1.0
  F  F9512  1  0.53298291  0.71820549  0.69731196  1.0
  F  F9513  1  0.53298291  0.79512856  0.69731196  1.0
  F  F9514  1  0.53298291  0.87205164  0.69731196  1.0
  F  F9515  1  0.53298291  0.94897472  0.69731196  1.0
  F  F9516  1  0.62389200  0.02589779  0.69731196  1.0
  F  F9517  1  0.62389200  0.10282087  0.69731196  1.0
  F  F9518  1  0.62389200  0.17974395  0.69731196  1.0
  F  F9519  1  0.62389200  0.25666703  0.69731196  1.0
  F  F9520  1  0.62389200  0.33359010  0.69731196  1.0
  F  F9521  1  0.62389200  0.41051318  0.69731196  1.0
  F  F9522  1  0.62389200  0.48743626  0.69731196  1.0
  F  F9523  1  0.62389200  0.56435933  0.69731196  1.0
  F  F9524  1  0.62389200  0.64128241  0.69731196  1.0
  F  F9525  1  0.62389200  0.71820549  0.69731196  1.0
  F  F9526  1  0.62389200  0.79512856  0.69731196  1.0
  F  F9527  1  0.62389200  0.87205164  0.69731196  1.0
  F  F9528  1  0.62389200  0.94897472  0.69731196  1.0
  F  F9529  1  0.71480109  0.02589779  0.69731196  1.0
  F  F9530  1  0.71480109  0.10282087  0.69731196  1.0
  F  F9531  1  0.71480109  0.17974395  0.69731196  1.0
  F  F9532  1  0.71480109  0.25666703  0.69731196  1.0
  F  F9533  1  0.71480109  0.33359010  0.69731196  1.0
  F  F9534  1  0.71480109  0.41051318  0.69731196  1.0
  F  F9535  1  0.71480109  0.48743626  0.69731196  1.0
  F  F9536  1  0.71480109  0.56435933  0.69731196  1.0
  F  F9537  1  0.71480109  0.64128241  0.69731196  1.0
  F  F9538  1  0.71480109  0.71820549  0.69731196  1.0
  F  F9539  1  0.71480109  0.79512856  0.69731196  1.0
  F  F9540  1  0.71480109  0.87205164  0.69731196  1.0
  F  F9541  1  0.71480109  0.94897472  0.69731196  1.0
  F  F9542  1  0.80571018  0.02589779  0.69731196  1.0
  F  F9543  1  0.80571018  0.10282087  0.69731196  1.0
  F  F9544  1  0.80571018  0.17974395  0.69731196  1.0
  F  F9545  1  0.80571018  0.25666703  0.69731196  1.0
  F  F9546  1  0.80571018  0.33359010  0.69731196  1.0
  F  F9547  1  0.80571018  0.41051318  0.69731196  1.0
  F  F9548  1  0.80571018  0.48743626  0.69731196  1.0
  F  F9549  1  0.80571018  0.56435933  0.69731196  1.0
  F  F9550  1  0.80571018  0.64128241  0.69731196  1.0
  F  F9551  1  0.80571018  0.71820549  0.69731196  1.0
  F  F9552  1  0.80571018  0.79512856  0.69731196  1.0
  F  F9553  1  0.80571018  0.87205164  0.69731196  1.0
  F  F9554  1  0.80571018  0.94897472  0.69731196  1.0
  F  F9555  1  0.89661927  0.02589779  0.69731196  1.0
  F  F9556  1  0.89661927  0.10282087  0.69731196  1.0
  F  F9557  1  0.89661927  0.17974395  0.69731196  1.0
  F  F9558  1  0.89661927  0.25666703  0.69731196  1.0
  F  F9559  1  0.89661927  0.33359010  0.69731196  1.0
  F  F9560  1  0.89661927  0.41051318  0.69731196  1.0
  F  F9561  1  0.89661927  0.48743626  0.69731196  1.0
  F  F9562  1  0.89661927  0.56435933  0.69731196  1.0
  F  F9563  1  0.89661927  0.64128241  0.69731196  1.0
  F  F9564  1  0.89661927  0.71820549  0.69731196  1.0
  F  F9565  1  0.89661927  0.79512856  0.69731196  1.0
  F  F9566  1  0.89661927  0.87205164  0.69731196  1.0
  F  F9567  1  0.89661927  0.94897472  0.69731196  1.0
  F  F9568  1  0.98752836  0.02589779  0.69731196  1.0
  F  F9569  1  0.98752836  0.10282087  0.69731196  1.0
  F  F9570  1  0.98752836  0.17974395  0.69731196  1.0
  F  F9571  1  0.98752836  0.25666703  0.69731196  1.0
  F  F9572  1  0.98752836  0.33359010  0.69731196  1.0
  F  F9573  1  0.98752836  0.41051318  0.69731196  1.0
  F  F9574  1  0.98752836  0.48743626  0.69731196  1.0
  F  F9575  1  0.98752836  0.56435933  0.69731196  1.0
  F  F9576  1  0.98752836  0.64128241  0.69731196  1.0
  F  F9577  1  0.98752836  0.71820549  0.69731196  1.0
  F  F9578  1  0.98752836  0.79512856  0.69731196  1.0
  F  F9579  1  0.98752836  0.87205164  0.69731196  1.0
  F  F9580  1  0.98752836  0.94897472  0.69731196  1.0
  F  F9581  1  0.01783139  0.05153882  0.76397863  1.0
  F  F9582  1  0.01783139  0.12846190  0.76397863  1.0
  F  F9583  1  0.01783139  0.20538497  0.76397863  1.0
  F  F9584  1  0.01783139  0.28230805  0.76397863  1.0
  F  F9585  1  0.01783139  0.35923113  0.76397863  1.0
  F  F9586  1  0.01783139  0.43615420  0.76397863  1.0
  F  F9587  1  0.01783139  0.51307728  0.76397863  1.0
  F  F9588  1  0.01783139  0.59000036  0.76397863  1.0
  F  F9589  1  0.01783139  0.66692344  0.76397863  1.0
  F  F9590  1  0.01783139  0.74384651  0.76397863  1.0
  F  F9591  1  0.01783139  0.82076959  0.76397863  1.0
  F  F9592  1  0.01783139  0.89769267  0.76397863  1.0
  F  F9593  1  0.01783139  0.97461574  0.76397863  1.0
  F  F9594  1  0.10874048  0.05153882  0.76397863  1.0
  F  F9595  1  0.10874048  0.12846190  0.76397863  1.0
  F  F9596  1  0.10874048  0.20538497  0.76397863  1.0
  F  F9597  1  0.10874048  0.28230805  0.76397863  1.0
  F  F9598  1  0.10874048  0.35923113  0.76397863  1.0
  F  F9599  1  0.10874048  0.43615420  0.76397863  1.0
  F  F9600  1  0.10874048  0.51307728  0.76397863  1.0
  F  F9601  1  0.10874048  0.59000036  0.76397863  1.0
  F  F9602  1  0.10874048  0.66692344  0.76397863  1.0
  F  F9603  1  0.10874048  0.74384651  0.76397863  1.0
  F  F9604  1  0.10874048  0.82076959  0.76397863  1.0
  F  F9605  1  0.10874048  0.89769267  0.76397863  1.0
  F  F9606  1  0.10874048  0.97461574  0.76397863  1.0
  F  F9607  1  0.19964957  0.05153882  0.76397863  1.0
  F  F9608  1  0.19964957  0.12846190  0.76397863  1.0
  F  F9609  1  0.19964957  0.20538497  0.76397863  1.0
  F  F9610  1  0.19964957  0.28230805  0.76397863  1.0
  F  F9611  1  0.19964957  0.35923113  0.76397863  1.0
  F  F9612  1  0.19964957  0.43615420  0.76397863  1.0
  F  F9613  1  0.19964957  0.51307728  0.76397863  1.0
  F  F9614  1  0.19964957  0.59000036  0.76397863  1.0
  F  F9615  1  0.19964957  0.66692344  0.76397863  1.0
  F  F9616  1  0.19964957  0.74384651  0.76397863  1.0
  F  F9617  1  0.19964957  0.82076959  0.76397863  1.0
  F  F9618  1  0.19964957  0.89769267  0.76397863  1.0
  F  F9619  1  0.19964957  0.97461574  0.76397863  1.0
  F  F9620  1  0.29055867  0.05153882  0.76397863  1.0
  F  F9621  1  0.29055867  0.12846190  0.76397863  1.0
  F  F9622  1  0.29055867  0.20538497  0.76397863  1.0
  F  F9623  1  0.29055867  0.28230805  0.76397863  1.0
  F  F9624  1  0.29055867  0.35923113  0.76397863  1.0
  F  F9625  1  0.29055867  0.43615420  0.76397863  1.0
  F  F9626  1  0.29055867  0.51307728  0.76397863  1.0
  F  F9627  1  0.29055867  0.59000036  0.76397863  1.0
  F  F9628  1  0.29055867  0.66692344  0.76397863  1.0
  F  F9629  1  0.29055867  0.74384651  0.76397863  1.0
  F  F9630  1  0.29055867  0.82076959  0.76397863  1.0
  F  F9631  1  0.29055867  0.89769267  0.76397863  1.0
  F  F9632  1  0.29055867  0.97461574  0.76397863  1.0
  F  F9633  1  0.38146776  0.05153882  0.76397863  1.0
  F  F9634  1  0.38146776  0.12846190  0.76397863  1.0
  F  F9635  1  0.38146776  0.20538497  0.76397863  1.0
  F  F9636  1  0.38146776  0.28230805  0.76397863  1.0
  F  F9637  1  0.38146776  0.35923113  0.76397863  1.0
  F  F9638  1  0.38146776  0.43615420  0.76397863  1.0
  F  F9639  1  0.38146776  0.51307728  0.76397863  1.0
  F  F9640  1  0.38146776  0.59000036  0.76397863  1.0
  F  F9641  1  0.38146776  0.66692344  0.76397863  1.0
  F  F9642  1  0.38146776  0.74384651  0.76397863  1.0
  F  F9643  1  0.38146776  0.82076959  0.76397863  1.0
  F  F9644  1  0.38146776  0.89769267  0.76397863  1.0
  F  F9645  1  0.38146776  0.97461574  0.76397863  1.0
  F  F9646  1  0.47237685  0.05153882  0.76397863  1.0
  F  F9647  1  0.47237685  0.12846190  0.76397863  1.0
  F  F9648  1  0.47237685  0.20538497  0.76397863  1.0
  F  F9649  1  0.47237685  0.28230805  0.76397863  1.0
  F  F9650  1  0.47237685  0.35923113  0.76397863  1.0
  F  F9651  1  0.47237685  0.43615420  0.76397863  1.0
  F  F9652  1  0.47237685  0.51307728  0.76397863  1.0
  F  F9653  1  0.47237685  0.59000036  0.76397863  1.0
  F  F9654  1  0.47237685  0.66692344  0.76397863  1.0
  F  F9655  1  0.47237685  0.74384651  0.76397863  1.0
  F  F9656  1  0.47237685  0.82076959  0.76397863  1.0
  F  F9657  1  0.47237685  0.89769267  0.76397863  1.0
  F  F9658  1  0.47237685  0.97461574  0.76397863  1.0
  F  F9659  1  0.56328594  0.05153882  0.76397863  1.0
  F  F9660  1  0.56328594  0.12846190  0.76397863  1.0
  F  F9661  1  0.56328594  0.20538497  0.76397863  1.0
  F  F9662  1  0.56328594  0.28230805  0.76397863  1.0
  F  F9663  1  0.56328594  0.35923113  0.76397863  1.0
  F  F9664  1  0.56328594  0.43615420  0.76397863  1.0
  F  F9665  1  0.56328594  0.51307728  0.76397863  1.0
  F  F9666  1  0.56328594  0.59000036  0.76397863  1.0
  F  F9667  1  0.56328594  0.66692344  0.76397863  1.0
  F  F9668  1  0.56328594  0.74384651  0.76397863  1.0
  F  F9669  1  0.56328594  0.82076959  0.76397863  1.0
  F  F9670  1  0.56328594  0.89769267  0.76397863  1.0
  F  F9671  1  0.56328594  0.97461574  0.76397863  1.0
  F  F9672  1  0.65419503  0.05153882  0.76397863  1.0
  F  F9673  1  0.65419503  0.12846190  0.76397863  1.0
  F  F9674  1  0.65419503  0.20538497  0.76397863  1.0
  F  F9675  1  0.65419503  0.28230805  0.76397863  1.0
  F  F9676  1  0.65419503  0.35923113  0.76397863  1.0
  F  F9677  1  0.65419503  0.43615420  0.76397863  1.0
  F  F9678  1  0.65419503  0.51307728  0.76397863  1.0
  F  F9679  1  0.65419503  0.59000036  0.76397863  1.0
  F  F9680  1  0.65419503  0.66692344  0.76397863  1.0
  F  F9681  1  0.65419503  0.74384651  0.76397863  1.0
  F  F9682  1  0.65419503  0.82076959  0.76397863  1.0
  F  F9683  1  0.65419503  0.89769267  0.76397863  1.0
  F  F9684  1  0.65419503  0.97461574  0.76397863  1.0
  F  F9685  1  0.74510412  0.05153882  0.76397863  1.0
  F  F9686  1  0.74510412  0.12846190  0.76397863  1.0
  F  F9687  1  0.74510412  0.20538497  0.76397863  1.0
  F  F9688  1  0.74510412  0.28230805  0.76397863  1.0
  F  F9689  1  0.74510412  0.35923113  0.76397863  1.0
  F  F9690  1  0.74510412  0.43615420  0.76397863  1.0
  F  F9691  1  0.74510412  0.51307728  0.76397863  1.0
  F  F9692  1  0.74510412  0.59000036  0.76397863  1.0
  F  F9693  1  0.74510412  0.66692344  0.76397863  1.0
  F  F9694  1  0.74510412  0.74384651  0.76397863  1.0
  F  F9695  1  0.74510412  0.82076959  0.76397863  1.0
  F  F9696  1  0.74510412  0.89769267  0.76397863  1.0
  F  F9697  1  0.74510412  0.97461574  0.76397863  1.0
  F  F9698  1  0.83601321  0.05153882  0.76397863  1.0
  F  F9699  1  0.83601321  0.12846190  0.76397863  1.0
  F  F9700  1  0.83601321  0.20538497  0.76397863  1.0
  F  F9701  1  0.83601321  0.28230805  0.76397863  1.0
  F  F9702  1  0.83601321  0.35923113  0.76397863  1.0
  F  F9703  1  0.83601321  0.43615420  0.76397863  1.0
  F  F9704  1  0.83601321  0.51307728  0.76397863  1.0
  F  F9705  1  0.83601321  0.59000036  0.76397863  1.0
  F  F9706  1  0.83601321  0.66692344  0.76397863  1.0
  F  F9707  1  0.83601321  0.74384651  0.76397863  1.0
  F  F9708  1  0.83601321  0.82076959  0.76397863  1.0
  F  F9709  1  0.83601321  0.89769267  0.76397863  1.0
  F  F9710  1  0.83601321  0.97461574  0.76397863  1.0
  F  F9711  1  0.92692230  0.05153882  0.76397863  1.0
  F  F9712  1  0.92692230  0.12846190  0.76397863  1.0
  F  F9713  1  0.92692230  0.20538497  0.76397863  1.0
  F  F9714  1  0.92692230  0.28230805  0.76397863  1.0
  F  F9715  1  0.92692230  0.35923113  0.76397863  1.0
  F  F9716  1  0.92692230  0.43615420  0.76397863  1.0
  F  F9717  1  0.92692230  0.51307728  0.76397863  1.0
  F  F9718  1  0.92692230  0.59000036  0.76397863  1.0
  F  F9719  1  0.92692230  0.66692344  0.76397863  1.0
  F  F9720  1  0.92692230  0.74384651  0.76397863  1.0
  F  F9721  1  0.92692230  0.82076959  0.76397863  1.0
  F  F9722  1  0.92692230  0.89769267  0.76397863  1.0
  F  F9723  1  0.92692230  0.97461574  0.76397863  1.0
  F  F9724  1  0.04813442  0.00025677  0.63064530  1.0
  F  F9725  1  0.04813442  0.07717985  0.63064530  1.0
  F  F9726  1  0.04813442  0.15410292  0.63064530  1.0
  F  F9727  1  0.04813442  0.23102600  0.63064530  1.0
  F  F9728  1  0.04813442  0.30794908  0.63064530  1.0
  F  F9729  1  0.04813442  0.38487215  0.63064530  1.0
  F  F9730  1  0.04813442  0.46179523  0.63064530  1.0
  F  F9731  1  0.04813442  0.53871831  0.63064530  1.0
  F  F9732  1  0.04813442  0.61564138  0.63064530  1.0
  F  F9733  1  0.04813442  0.69256446  0.63064530  1.0
  F  F9734  1  0.04813442  0.76948754  0.63064530  1.0
  F  F9735  1  0.04813442  0.84641061  0.63064530  1.0
  F  F9736  1  0.04813442  0.92333369  0.63064530  1.0
  F  F9737  1  0.13904351  0.00025677  0.63064530  1.0
  F  F9738  1  0.13904351  0.07717985  0.63064530  1.0
  F  F9739  1  0.13904351  0.15410292  0.63064530  1.0
  F  F9740  1  0.13904351  0.23102600  0.63064530  1.0
  F  F9741  1  0.13904351  0.30794908  0.63064530  1.0
  F  F9742  1  0.13904351  0.38487215  0.63064530  1.0
  F  F9743  1  0.13904351  0.46179523  0.63064530  1.0
  F  F9744  1  0.13904351  0.53871831  0.63064530  1.0
  F  F9745  1  0.13904351  0.61564138  0.63064530  1.0
  F  F9746  1  0.13904351  0.69256446  0.63064530  1.0
  F  F9747  1  0.13904351  0.76948754  0.63064530  1.0
  F  F9748  1  0.13904351  0.84641061  0.63064530  1.0
  F  F9749  1  0.13904351  0.92333369  0.63064530  1.0
  F  F9750  1  0.22995260  0.00025677  0.63064530  1.0
  F  F9751  1  0.22995260  0.07717985  0.63064530  1.0
  F  F9752  1  0.22995260  0.15410292  0.63064530  1.0
  F  F9753  1  0.22995260  0.23102600  0.63064530  1.0
  F  F9754  1  0.22995260  0.30794908  0.63064530  1.0
  F  F9755  1  0.22995260  0.38487215  0.63064530  1.0
  F  F9756  1  0.22995260  0.46179523  0.63064530  1.0
  F  F9757  1  0.22995260  0.53871831  0.63064530  1.0
  F  F9758  1  0.22995260  0.61564138  0.63064530  1.0
  F  F9759  1  0.22995260  0.69256446  0.63064530  1.0
  F  F9760  1  0.22995260  0.76948754  0.63064530  1.0
  F  F9761  1  0.22995260  0.84641061  0.63064530  1.0
  F  F9762  1  0.22995260  0.92333369  0.63064530  1.0
  F  F9763  1  0.32086170  0.00025677  0.63064530  1.0
  F  F9764  1  0.32086170  0.07717985  0.63064530  1.0
  F  F9765  1  0.32086170  0.15410292  0.63064530  1.0
  F  F9766  1  0.32086170  0.23102600  0.63064530  1.0
  F  F9767  1  0.32086170  0.30794908  0.63064530  1.0
  F  F9768  1  0.32086170  0.38487215  0.63064530  1.0
  F  F9769  1  0.32086170  0.46179523  0.63064530  1.0
  F  F9770  1  0.32086170  0.53871831  0.63064530  1.0
  F  F9771  1  0.32086170  0.61564138  0.63064530  1.0
  F  F9772  1  0.32086170  0.69256446  0.63064530  1.0
  F  F9773  1  0.32086170  0.76948754  0.63064530  1.0
  F  F9774  1  0.32086170  0.84641061  0.63064530  1.0
  F  F9775  1  0.32086170  0.92333369  0.63064530  1.0
  F  F9776  1  0.41177079  0.00025677  0.63064530  1.0
  F  F9777  1  0.41177079  0.07717985  0.63064530  1.0
  F  F9778  1  0.41177079  0.15410292  0.63064530  1.0
  F  F9779  1  0.41177079  0.23102600  0.63064530  1.0
  F  F9780  1  0.41177079  0.30794908  0.63064530  1.0
  F  F9781  1  0.41177079  0.38487215  0.63064530  1.0
  F  F9782  1  0.41177079  0.46179523  0.63064530  1.0
  F  F9783  1  0.41177079  0.53871831  0.63064530  1.0
  F  F9784  1  0.41177079  0.61564138  0.63064530  1.0
  F  F9785  1  0.41177079  0.69256446  0.63064530  1.0
  F  F9786  1  0.41177079  0.76948754  0.63064530  1.0
  F  F9787  1  0.41177079  0.84641061  0.63064530  1.0
  F  F9788  1  0.41177079  0.92333369  0.63064530  1.0
  F  F9789  1  0.50267988  0.00025677  0.63064530  1.0
  F  F9790  1  0.50267988  0.07717985  0.63064530  1.0
  F  F9791  1  0.50267988  0.15410292  0.63064530  1.0
  F  F9792  1  0.50267988  0.23102600  0.63064530  1.0
  F  F9793  1  0.50267988  0.30794908  0.63064530  1.0
  F  F9794  1  0.50267988  0.38487215  0.63064530  1.0
  F  F9795  1  0.50267988  0.46179523  0.63064530  1.0
  F  F9796  1  0.50267988  0.53871831  0.63064530  1.0
  F  F9797  1  0.50267988  0.61564138  0.63064530  1.0
  F  F9798  1  0.50267988  0.69256446  0.63064530  1.0
  F  F9799  1  0.50267988  0.76948754  0.63064530  1.0
  F  F9800  1  0.50267988  0.84641061  0.63064530  1.0
  F  F9801  1  0.50267988  0.92333369  0.63064530  1.0
  F  F9802  1  0.59358897  0.00025677  0.63064530  1.0
  F  F9803  1  0.59358897  0.07717985  0.63064530  1.0
  F  F9804  1  0.59358897  0.15410292  0.63064530  1.0
  F  F9805  1  0.59358897  0.23102600  0.63064530  1.0
  F  F9806  1  0.59358897  0.30794908  0.63064530  1.0
  F  F9807  1  0.59358897  0.38487215  0.63064530  1.0
  F  F9808  1  0.59358897  0.46179523  0.63064530  1.0
  F  F9809  1  0.59358897  0.53871831  0.63064530  1.0
  F  F9810  1  0.59358897  0.61564138  0.63064530  1.0
  F  F9811  1  0.59358897  0.69256446  0.63064530  1.0
  F  F9812  1  0.59358897  0.76948754  0.63064530  1.0
  F  F9813  1  0.59358897  0.84641061  0.63064530  1.0
  F  F9814  1  0.59358897  0.92333369  0.63064530  1.0
  F  F9815  1  0.68449806  0.00025677  0.63064530  1.0
  F  F9816  1  0.68449806  0.07717985  0.63064530  1.0
  F  F9817  1  0.68449806  0.15410292  0.63064530  1.0
  F  F9818  1  0.68449806  0.23102600  0.63064530  1.0
  F  F9819  1  0.68449806  0.30794908  0.63064530  1.0
  F  F9820  1  0.68449806  0.38487215  0.63064530  1.0
  F  F9821  1  0.68449806  0.46179523  0.63064530  1.0
  F  F9822  1  0.68449806  0.53871831  0.63064530  1.0
  F  F9823  1  0.68449806  0.61564138  0.63064530  1.0
  F  F9824  1  0.68449806  0.69256446  0.63064530  1.0
  F  F9825  1  0.68449806  0.76948754  0.63064530  1.0
  F  F9826  1  0.68449806  0.84641061  0.63064530  1.0
  F  F9827  1  0.68449806  0.92333369  0.63064530  1.0
  F  F9828  1  0.77540715  0.00025677  0.63064530  1.0
  F  F9829  1  0.77540715  0.07717985  0.63064530  1.0
  F  F9830  1  0.77540715  0.15410292  0.63064530  1.0
  F  F9831  1  0.77540715  0.23102600  0.63064530  1.0
  F  F9832  1  0.77540715  0.30794908  0.63064530  1.0
  F  F9833  1  0.77540715  0.38487215  0.63064530  1.0
  F  F9834  1  0.77540715  0.46179523  0.63064530  1.0
  F  F9835  1  0.77540715  0.53871831  0.63064530  1.0
  F  F9836  1  0.77540715  0.61564138  0.63064530  1.0
  F  F9837  1  0.77540715  0.69256446  0.63064530  1.0
  F  F9838  1  0.77540715  0.76948754  0.63064530  1.0
  F  F9839  1  0.77540715  0.84641061  0.63064530  1.0
  F  F9840  1  0.77540715  0.92333369  0.63064530  1.0
  F  F9841  1  0.86631624  0.00025677  0.63064530  1.0
  F  F9842  1  0.86631624  0.07717985  0.63064530  1.0
  F  F9843  1  0.86631624  0.15410292  0.63064530  1.0
  F  F9844  1  0.86631624  0.23102600  0.63064530  1.0
  F  F9845  1  0.86631624  0.30794908  0.63064530  1.0
  F  F9846  1  0.86631624  0.38487215  0.63064530  1.0
  F  F9847  1  0.86631624  0.46179523  0.63064530  1.0
  F  F9848  1  0.86631624  0.53871831  0.63064530  1.0
  F  F9849  1  0.86631624  0.61564138  0.63064530  1.0
  F  F9850  1  0.86631624  0.69256446  0.63064530  1.0
  F  F9851  1  0.86631624  0.76948754  0.63064530  1.0
  F  F9852  1  0.86631624  0.84641061  0.63064530  1.0
  F  F9853  1  0.86631624  0.92333369  0.63064530  1.0
  F  F9854  1  0.95722533  0.00025677  0.63064530  1.0
  F  F9855  1  0.95722533  0.07717985  0.63064530  1.0
  F  F9856  1  0.95722533  0.15410292  0.63064530  1.0
  F  F9857  1  0.95722533  0.23102600  0.63064530  1.0
  F  F9858  1  0.95722533  0.30794908  0.63064530  1.0
  F  F9859  1  0.95722533  0.38487215  0.63064530  1.0
  F  F9860  1  0.95722533  0.46179523  0.63064530  1.0
  F  F9861  1  0.95722533  0.53871831  0.63064530  1.0
  F  F9862  1  0.95722533  0.61564138  0.63064530  1.0
  F  F9863  1  0.95722533  0.69256446  0.63064530  1.0
  F  F9864  1  0.95722533  0.76948754  0.63064530  1.0
  F  F9865  1  0.95722533  0.84641061  0.63064530  1.0
  F  F9866  1  0.95722533  0.92333369  0.63064530  1.0
