# generated using pymatgen
data_Ti8F21
_symmetry_space_group_name_H-M   'P 1'
_cell_length_a   60.98865289
_cell_length_b   60.92203697
_cell_length_c   54.89898252
_cell_angle_alpha   90.66089985
_cell_angle_beta   88.61682460
_cell_angle_gamma   90.22034138
_symmetry_Int_Tables_number   1
_chemical_formula_structural   Ti8F21
_chemical_formula_sum   'Ti1936 F5082'
_cell_volume   203905.77749287
_cell_formula_units_Z   242
loop_
 _symmetry_equiv_pos_site_id
 _symmetry_equiv_pos_as_xyz
  1  'x, y, z'
loop_
 _atom_site_type_symbol
 _atom_site_label
 _atom_site_symmetry_multiplicity
 _atom_site_fract_x
 _atom_site_fract_y
 _atom_site_fract_z
 _atom_site_occupancy
  Ti  Ti0  1  0.04545455  0.04545455  0.26941160  1.0
  Ti  Ti1  1  0.04545455  0.13636364  0.26941160  1.0
  Ti  Ti2  1  0.04545455  0.22727273  0.26941160  1.0
  Ti  Ti3  1  0.04545455  0.31818182  0.26941160  1.0
  Ti  Ti4  1  0.04545455  0.40909091  0.26941160  1.0
  Ti  Ti5  1  0.04545455  0.50000000  0.26941160  1.0
  Ti  Ti6  1  0.04545455  0.59090909  0.26941160  1.0
  Ti  Ti7  1  0.04545455  0.68181818  0.26941160  1.0
  Ti  Ti8  1  0.04545455  0.77272727  0.26941160  1.0
  Ti  Ti9  1  0.04545455  0.86363636  0.26941160  1.0
  Ti  Ti10  1  0.04545455  0.95454545  0.26941160  1.0
  Ti  Ti11  1  0.13636364  0.04545455  0.26941160  1.0
  Ti  Ti12  1  0.13636364  0.13636364  0.26941160  1.0
  Ti  Ti13  1  0.13636364  0.22727273  0.26941160  1.0
  Ti  Ti14  1  0.13636364  0.31818182  0.26941160  1.0
  Ti  Ti15  1  0.13636364  0.40909091  0.26941160  1.0
  Ti  Ti16  1  0.13636364  0.50000000  0.26941160  1.0
  Ti  Ti17  1  0.13636364  0.59090909  0.26941160  1.0
  Ti  Ti18  1  0.13636364  0.68181818  0.26941160  1.0
  Ti  Ti19  1  0.13636364  0.77272727  0.26941160  1.0
  Ti  Ti20  1  0.13636364  0.86363636  0.26941160  1.0
  Ti  Ti21  1  0.13636364  0.95454545  0.26941160  1.0
  Ti  Ti22  1  0.22727273  0.04545455  0.26941160  1.0
  Ti  Ti23  1  0.22727273  0.13636364  0.26941160  1.0
  Ti  Ti24  1  0.22727273  0.22727273  0.26941160  1.0
  Ti  Ti25  1  0.22727273  0.31818182  0.26941160  1.0
  Ti  Ti26  1  0.22727273  0.40909091  0.26941160  1.0
  Ti  Ti27  1  0.22727273  0.50000000  0.26941160  1.0
  Ti  Ti28  1  0.22727273  0.59090909  0.26941160  1.0
  Ti  Ti29  1  0.22727273  0.68181818  0.26941160  1.0
  Ti  Ti30  1  0.22727273  0.77272727  0.26941160  1.0
  Ti  Ti31  1  0.22727273  0.86363636  0.26941160  1.0
  Ti  Ti32  1  0.22727273  0.95454545  0.26941160  1.0
  Ti  Ti33  1  0.31818182  0.04545455  0.26941160  1.0
  Ti  Ti34  1  0.31818182  0.13636364  0.26941160  1.0
  Ti  Ti35  1  0.31818182  0.22727273  0.26941160  1.0
  Ti  Ti36  1  0.31818182  0.31818182  0.26941160  1.0
  Ti  Ti37  1  0.31818182  0.40909091  0.26941160  1.0
  Ti  Ti38  1  0.31818182  0.50000000  0.26941160  1.0
  Ti  Ti39  1  0.31818182  0.59090909  0.26941160  1.0
  Ti  Ti40  1  0.31818182  0.68181818  0.26941160  1.0
  Ti  Ti41  1  0.31818182  0.77272727  0.26941160  1.0
  Ti  Ti42  1  0.31818182  0.86363636  0.26941160  1.0
  Ti  Ti43  1  0.31818182  0.95454545  0.26941160  1.0
  Ti  Ti44  1  0.40909091  0.04545455  0.26941160  1.0
  Ti  Ti45  1  0.40909091  0.13636364  0.26941160  1.0
  Ti  Ti46  1  0.40909091  0.22727273  0.26941160  1.0
  Ti  Ti47  1  0.40909091  0.31818182  0.26941160  1.0
  Ti  Ti48  1  0.40909091  0.40909091  0.26941160  1.0
  Ti  Ti49  1  0.40909091  0.50000000  0.26941160  1.0
  Ti  Ti50  1  0.40909091  0.59090909  0.26941160  1.0
  Ti  Ti51  1  0.40909091  0.68181818  0.26941160  1.0
  Ti  Ti52  1  0.40909091  0.77272727  0.26941160  1.0
  Ti  Ti53  1  0.40909091  0.86363636  0.26941160  1.0
  Ti  Ti54  1  0.40909091  0.95454545  0.26941160  1.0
  Ti  Ti55  1  0.50000000  0.04545455  0.26941160  1.0
  Ti  Ti56  1  0.50000000  0.13636364  0.26941160  1.0
  Ti  Ti57  1  0.50000000  0.22727273  0.26941160  1.0
  Ti  Ti58  1  0.50000000  0.31818182  0.26941160  1.0
  Ti  Ti59  1  0.50000000  0.40909091  0.26941160  1.0
  Ti  Ti60  1  0.50000000  0.50000000  0.26941160  1.0
  Ti  Ti61  1  0.50000000  0.59090909  0.26941160  1.0
  Ti  Ti62  1  0.50000000  0.68181818  0.26941160  1.0
  Ti  Ti63  1  0.50000000  0.77272727  0.26941160  1.0
  Ti  Ti64  1  0.50000000  0.86363636  0.26941160  1.0
  Ti  Ti65  1  0.50000000  0.95454545  0.26941160  1.0
  Ti  Ti66  1  0.59090909  0.04545455  0.26941160  1.0
  Ti  Ti67  1  0.59090909  0.13636364  0.26941160  1.0
  Ti  Ti68  1  0.59090909  0.22727273  0.26941160  1.0
  Ti  Ti69  1  0.59090909  0.31818182  0.26941160  1.0
  Ti  Ti70  1  0.59090909  0.40909091  0.26941160  1.0
  Ti  Ti71  1  0.59090909  0.50000000  0.26941160  1.0
  Ti  Ti72  1  0.59090909  0.59090909  0.26941160  1.0
  Ti  Ti73  1  0.59090909  0.68181818  0.26941160  1.0
  Ti  Ti74  1  0.59090909  0.77272727  0.26941160  1.0
  Ti  Ti75  1  0.59090909  0.86363636  0.26941160  1.0
  Ti  Ti76  1  0.59090909  0.95454545  0.26941160  1.0
  Ti  Ti77  1  0.68181818  0.04545455  0.26941160  1.0
  Ti  Ti78  1  0.68181818  0.13636364  0.26941160  1.0
  Ti  Ti79  1  0.68181818  0.22727273  0.26941160  1.0
  Ti  Ti80  1  0.68181818  0.31818182  0.26941160  1.0
  Ti  Ti81  1  0.68181818  0.40909091  0.26941160  1.0
  Ti  Ti82  1  0.68181818  0.50000000  0.26941160  1.0
  Ti  Ti83  1  0.68181818  0.59090909  0.26941160  1.0
  Ti  Ti84  1  0.68181818  0.68181818  0.26941160  1.0
  Ti  Ti85  1  0.68181818  0.77272727  0.26941160  1.0
  Ti  Ti86  1  0.68181818  0.86363636  0.26941160  1.0
  Ti  Ti87  1  0.68181818  0.95454545  0.26941160  1.0
  Ti  Ti88  1  0.77272727  0.04545455  0.26941160  1.0
  Ti  Ti89  1  0.77272727  0.13636364  0.26941160  1.0
  Ti  Ti90  1  0.77272727  0.22727273  0.26941160  1.0
  Ti  Ti91  1  0.77272727  0.31818182  0.26941160  1.0
  Ti  Ti92  1  0.77272727  0.40909091  0.26941160  1.0
  Ti  Ti93  1  0.77272727  0.50000000  0.26941160  1.0
  Ti  Ti94  1  0.77272727  0.59090909  0.26941160  1.0
  Ti  Ti95  1  0.77272727  0.68181818  0.26941160  1.0
  Ti  Ti96  1  0.77272727  0.77272727  0.26941160  1.0
  Ti  Ti97  1  0.77272727  0.86363636  0.26941160  1.0
  Ti  Ti98  1  0.77272727  0.95454545  0.26941160  1.0
  Ti  Ti99  1  0.86363636  0.04545455  0.26941160  1.0
  Ti  Ti100  1  0.86363636  0.13636364  0.26941160  1.0
  Ti  Ti101  1  0.86363636  0.22727273  0.26941160  1.0
  Ti  Ti102  1  0.86363636  0.31818182  0.26941160  1.0
  Ti  Ti103  1  0.86363636  0.40909091  0.26941160  1.0
  Ti  Ti104  1  0.86363636  0.50000000  0.26941160  1.0
  Ti  Ti105  1  0.86363636  0.59090909  0.26941160  1.0
  Ti  Ti106  1  0.86363636  0.68181818  0.26941160  1.0
  Ti  Ti107  1  0.86363636  0.77272727  0.26941160  1.0
  Ti  Ti108  1  0.86363636  0.86363636  0.26941160  1.0
  Ti  Ti109  1  0.86363636  0.95454545  0.26941160  1.0
  Ti  Ti110  1  0.95454545  0.04545455  0.26941160  1.0
  Ti  Ti111  1  0.95454545  0.13636364  0.26941160  1.0
  Ti  Ti112  1  0.95454545  0.22727273  0.26941160  1.0
  Ti  Ti113  1  0.95454545  0.31818182  0.26941160  1.0
  Ti  Ti114  1  0.95454545  0.40909091  0.26941160  1.0
  Ti  Ti115  1  0.95454545  0.50000000  0.26941160  1.0
  Ti  Ti116  1  0.95454545  0.59090909  0.26941160  1.0
  Ti  Ti117  1  0.95454545  0.68181818  0.26941160  1.0
  Ti  Ti118  1  0.95454545  0.77272727  0.26941160  1.0
  Ti  Ti119  1  0.95454545  0.86363636  0.26941160  1.0
  Ti  Ti120  1  0.95454545  0.95454545  0.26941160  1.0
  Ti  Ti121  1  0.09090909  0.09090909  0.34084017  1.0
  Ti  Ti122  1  0.09090909  0.18181818  0.34084017  1.0
  Ti  Ti123  1  0.09090909  0.27272727  0.34084017  1.0
  Ti  Ti124  1  0.09090909  0.36363636  0.34084017  1.0
  Ti  Ti125  1  0.09090909  0.45454545  0.34084017  1.0
  Ti  Ti126  1  0.09090909  0.54545455  0.34084017  1.0
  Ti  Ti127  1  0.09090909  0.63636364  0.34084017  1.0
  Ti  Ti128  1  0.09090909  0.72727273  0.34084017  1.0
  Ti  Ti129  1  0.09090909  0.81818182  0.34084017  1.0
  Ti  Ti130  1  0.09090909  0.90909091  0.34084017  1.0
  Ti  Ti131  1  0.09090909  0.00000000  0.34084017  1.0
  Ti  Ti132  1  0.18181818  0.09090909  0.34084017  1.0
  Ti  Ti133  1  0.18181818  0.18181818  0.34084017  1.0
  Ti  Ti134  1  0.18181818  0.27272727  0.34084017  1.0
  Ti  Ti135  1  0.18181818  0.36363636  0.34084017  1.0
  Ti  Ti136  1  0.18181818  0.45454545  0.34084017  1.0
  Ti  Ti137  1  0.18181818  0.54545455  0.34084017  1.0
  Ti  Ti138  1  0.18181818  0.63636364  0.34084017  1.0
  Ti  Ti139  1  0.18181818  0.72727273  0.34084017  1.0
  Ti  Ti140  1  0.18181818  0.81818182  0.34084017  1.0
  Ti  Ti141  1  0.18181818  0.90909091  0.34084017  1.0
  Ti  Ti142  1  0.18181818  0.00000000  0.34084017  1.0
  Ti  Ti143  1  0.27272727  0.09090909  0.34084017  1.0
  Ti  Ti144  1  0.27272727  0.18181818  0.34084017  1.0
  Ti  Ti145  1  0.27272727  0.27272727  0.34084017  1.0
  Ti  Ti146  1  0.27272727  0.36363636  0.34084017  1.0
  Ti  Ti147  1  0.27272727  0.45454545  0.34084017  1.0
  Ti  Ti148  1  0.27272727  0.54545455  0.34084017  1.0
  Ti  Ti149  1  0.27272727  0.63636364  0.34084017  1.0
  Ti  Ti150  1  0.27272727  0.72727273  0.34084017  1.0
  Ti  Ti151  1  0.27272727  0.81818182  0.34084017  1.0
  Ti  Ti152  1  0.27272727  0.90909091  0.34084017  1.0
  Ti  Ti153  1  0.27272727  0.00000000  0.34084017  1.0
  Ti  Ti154  1  0.36363636  0.09090909  0.34084017  1.0
  Ti  Ti155  1  0.36363636  0.18181818  0.34084017  1.0
  Ti  Ti156  1  0.36363636  0.27272727  0.34084017  1.0
  Ti  Ti157  1  0.36363636  0.36363636  0.34084017  1.0
  Ti  Ti158  1  0.36363636  0.45454545  0.34084017  1.0
  Ti  Ti159  1  0.36363636  0.54545455  0.34084017  1.0
  Ti  Ti160  1  0.36363636  0.63636364  0.34084017  1.0
  Ti  Ti161  1  0.36363636  0.72727273  0.34084017  1.0
  Ti  Ti162  1  0.36363636  0.81818182  0.34084017  1.0
  Ti  Ti163  1  0.36363636  0.90909091  0.34084017  1.0
  Ti  Ti164  1  0.36363636  0.00000000  0.34084017  1.0
  Ti  Ti165  1  0.45454545  0.09090909  0.34084017  1.0
  Ti  Ti166  1  0.45454545  0.18181818  0.34084017  1.0
  Ti  Ti167  1  0.45454545  0.27272727  0.34084017  1.0
  Ti  Ti168  1  0.45454545  0.36363636  0.34084017  1.0
  Ti  Ti169  1  0.45454545  0.45454545  0.34084017  1.0
  Ti  Ti170  1  0.45454545  0.54545455  0.34084017  1.0
  Ti  Ti171  1  0.45454545  0.63636364  0.34084017  1.0
  Ti  Ti172  1  0.45454545  0.72727273  0.34084017  1.0
  Ti  Ti173  1  0.45454545  0.81818182  0.34084017  1.0
  Ti  Ti174  1  0.45454545  0.90909091  0.34084017  1.0
  Ti  Ti175  1  0.45454545  0.00000000  0.34084017  1.0
  Ti  Ti176  1  0.54545455  0.09090909  0.34084017  1.0
  Ti  Ti177  1  0.54545455  0.18181818  0.34084017  1.0
  Ti  Ti178  1  0.54545455  0.27272727  0.34084017  1.0
  Ti  Ti179  1  0.54545455  0.36363636  0.34084017  1.0
  Ti  Ti180  1  0.54545455  0.45454545  0.34084017  1.0
  Ti  Ti181  1  0.54545455  0.54545455  0.34084017  1.0
  Ti  Ti182  1  0.54545455  0.63636364  0.34084017  1.0
  Ti  Ti183  1  0.54545455  0.72727273  0.34084017  1.0
  Ti  Ti184  1  0.54545455  0.81818182  0.34084017  1.0
  Ti  Ti185  1  0.54545455  0.90909091  0.34084017  1.0
  Ti  Ti186  1  0.54545455  0.00000000  0.34084017  1.0
  Ti  Ti187  1  0.63636364  0.09090909  0.34084017  1.0
  Ti  Ti188  1  0.63636364  0.18181818  0.34084017  1.0
  Ti  Ti189  1  0.63636364  0.27272727  0.34084017  1.0
  Ti  Ti190  1  0.63636364  0.36363636  0.34084017  1.0
  Ti  Ti191  1  0.63636364  0.45454545  0.34084017  1.0
  Ti  Ti192  1  0.63636364  0.54545455  0.34084017  1.0
  Ti  Ti193  1  0.63636364  0.63636364  0.34084017  1.0
  Ti  Ti194  1  0.63636364  0.72727273  0.34084017  1.0
  Ti  Ti195  1  0.63636364  0.81818182  0.34084017  1.0
  Ti  Ti196  1  0.63636364  0.90909091  0.34084017  1.0
  Ti  Ti197  1  0.63636364  0.00000000  0.34084017  1.0
  Ti  Ti198  1  0.72727273  0.09090909  0.34084017  1.0
  Ti  Ti199  1  0.72727273  0.18181818  0.34084017  1.0
  Ti  Ti200  1  0.72727273  0.27272727  0.34084017  1.0
  Ti  Ti201  1  0.72727273  0.36363636  0.34084017  1.0
  Ti  Ti202  1  0.72727273  0.45454545  0.34084017  1.0
  Ti  Ti203  1  0.72727273  0.54545455  0.34084017  1.0
  Ti  Ti204  1  0.72727273  0.63636364  0.34084017  1.0
  Ti  Ti205  1  0.72727273  0.72727273  0.34084017  1.0
  Ti  Ti206  1  0.72727273  0.81818182  0.34084017  1.0
  Ti  Ti207  1  0.72727273  0.90909091  0.34084017  1.0
  Ti  Ti208  1  0.72727273  0.00000000  0.34084017  1.0
  Ti  Ti209  1  0.81818182  0.09090909  0.34084017  1.0
  Ti  Ti210  1  0.81818182  0.18181818  0.34084017  1.0
  Ti  Ti211  1  0.81818182  0.27272727  0.34084017  1.0
  Ti  Ti212  1  0.81818182  0.36363636  0.34084017  1.0
  Ti  Ti213  1  0.81818182  0.45454545  0.34084017  1.0
  Ti  Ti214  1  0.81818182  0.54545455  0.34084017  1.0
  Ti  Ti215  1  0.81818182  0.63636364  0.34084017  1.0
  Ti  Ti216  1  0.81818182  0.72727273  0.34084017  1.0
  Ti  Ti217  1  0.81818182  0.81818182  0.34084017  1.0
  Ti  Ti218  1  0.81818182  0.90909091  0.34084017  1.0
  Ti  Ti219  1  0.81818182  0.00000000  0.34084017  1.0
  Ti  Ti220  1  0.90909091  0.09090909  0.34084017  1.0
  Ti  Ti221  1  0.90909091  0.18181818  0.34084017  1.0
  Ti  Ti222  1  0.90909091  0.27272727  0.34084017  1.0
  Ti  Ti223  1  0.90909091  0.36363636  0.34084017  1.0
  Ti  Ti224  1  0.90909091  0.45454545  0.34084017  1.0
  Ti  Ti225  1  0.90909091  0.54545455  0.34084017  1.0
  Ti  Ti226  1  0.90909091  0.63636364  0.34084017  1.0
  Ti  Ti227  1  0.90909091  0.72727273  0.34084017  1.0
  Ti  Ti228  1  0.90909091  0.81818182  0.34084017  1.0
  Ti  Ti229  1  0.90909091  0.90909091  0.34084017  1.0
  Ti  Ti230  1  0.90909091  0.00000000  0.34084017  1.0
  Ti  Ti231  1  0.00000000  0.09090909  0.34084017  1.0
  Ti  Ti232  1  0.00000000  0.18181818  0.34084017  1.0
  Ti  Ti233  1  0.00000000  0.27272727  0.34084017  1.0
  Ti  Ti234  1  0.00000000  0.36363636  0.34084017  1.0
  Ti  Ti235  1  0.00000000  0.45454545  0.34084017  1.0
  Ti  Ti236  1  0.00000000  0.54545455  0.34084017  1.0
  Ti  Ti237  1  0.00000000  0.63636364  0.34084017  1.0
  Ti  Ti238  1  0.00000000  0.72727273  0.34084017  1.0
  Ti  Ti239  1  1.00000000  0.81818182  0.34084017  1.0
  Ti  Ti240  1  0.00000000  0.90909091  0.34084017  1.0
  Ti  Ti241  1  0.00000000  0.00000000  0.34084017  1.0
  Ti  Ti242  1  0.04545455  0.04545455  0.34084017  1.0
  Ti  Ti243  1  0.04545455  0.13636364  0.34084017  1.0
  Ti  Ti244  1  0.04545455  0.22727273  0.34084017  1.0
  Ti  Ti245  1  0.04545455  0.31818182  0.34084017  1.0
  Ti  Ti246  1  0.04545455  0.40909091  0.34084017  1.0
  Ti  Ti247  1  0.04545455  0.50000000  0.34084017  1.0
  Ti  Ti248  1  0.04545455  0.59090909  0.34084017  1.0
  Ti  Ti249  1  0.04545455  0.68181818  0.34084017  1.0
  Ti  Ti250  1  0.04545455  0.77272727  0.34084017  1.0
  Ti  Ti251  1  0.04545455  0.86363636  0.34084017  1.0
  Ti  Ti252  1  0.04545455  0.95454545  0.34084017  1.0
  Ti  Ti253  1  0.13636364  0.04545455  0.34084017  1.0
  Ti  Ti254  1  0.13636364  0.13636364  0.34084017  1.0
  Ti  Ti255  1  0.13636364  0.22727273  0.34084017  1.0
  Ti  Ti256  1  0.13636364  0.31818182  0.34084017  1.0
  Ti  Ti257  1  0.13636364  0.40909091  0.34084017  1.0
  Ti  Ti258  1  0.13636364  0.50000000  0.34084017  1.0
  Ti  Ti259  1  0.13636364  0.59090909  0.34084017  1.0
  Ti  Ti260  1  0.13636364  0.68181818  0.34084017  1.0
  Ti  Ti261  1  0.13636364  0.77272727  0.34084017  1.0
  Ti  Ti262  1  0.13636364  0.86363636  0.34084017  1.0
  Ti  Ti263  1  0.13636364  0.95454545  0.34084017  1.0
  Ti  Ti264  1  0.22727273  0.04545455  0.34084017  1.0
  Ti  Ti265  1  0.22727273  0.13636364  0.34084017  1.0
  Ti  Ti266  1  0.22727273  0.22727273  0.34084017  1.0
  Ti  Ti267  1  0.22727273  0.31818182  0.34084017  1.0
  Ti  Ti268  1  0.22727273  0.40909091  0.34084017  1.0
  Ti  Ti269  1  0.22727273  0.50000000  0.34084017  1.0
  Ti  Ti270  1  0.22727273  0.59090909  0.34084017  1.0
  Ti  Ti271  1  0.22727273  0.68181818  0.34084017  1.0
  Ti  Ti272  1  0.22727273  0.77272727  0.34084017  1.0
  Ti  Ti273  1  0.22727273  0.86363636  0.34084017  1.0
  Ti  Ti274  1  0.22727273  0.95454545  0.34084017  1.0
  Ti  Ti275  1  0.31818182  0.04545455  0.34084017  1.0
  Ti  Ti276  1  0.31818182  0.13636364  0.34084017  1.0
  Ti  Ti277  1  0.31818182  0.22727273  0.34084017  1.0
  Ti  Ti278  1  0.31818182  0.31818182  0.34084017  1.0
  Ti  Ti279  1  0.31818182  0.40909091  0.34084017  1.0
  Ti  Ti280  1  0.31818182  0.50000000  0.34084017  1.0
  Ti  Ti281  1  0.31818182  0.59090909  0.34084017  1.0
  Ti  Ti282  1  0.31818182  0.68181818  0.34084017  1.0
  Ti  Ti283  1  0.31818182  0.77272727  0.34084017  1.0
  Ti  Ti284  1  0.31818182  0.86363636  0.34084017  1.0
  Ti  Ti285  1  0.31818182  0.95454545  0.34084017  1.0
  Ti  Ti286  1  0.40909091  0.04545455  0.34084017  1.0
  Ti  Ti287  1  0.40909091  0.13636364  0.34084017  1.0
  Ti  Ti288  1  0.40909091  0.22727273  0.34084017  1.0
  Ti  Ti289  1  0.40909091  0.31818182  0.34084017  1.0
  Ti  Ti290  1  0.40909091  0.40909091  0.34084017  1.0
  Ti  Ti291  1  0.40909091  0.50000000  0.34084017  1.0
  Ti  Ti292  1  0.40909091  0.59090909  0.34084017  1.0
  Ti  Ti293  1  0.40909091  0.68181818  0.34084017  1.0
  Ti  Ti294  1  0.40909091  0.77272727  0.34084017  1.0
  Ti  Ti295  1  0.40909091  0.86363636  0.34084017  1.0
  Ti  Ti296  1  0.40909091  0.95454545  0.34084017  1.0
  Ti  Ti297  1  0.50000000  0.04545455  0.34084017  1.0
  Ti  Ti298  1  0.50000000  0.13636364  0.34084017  1.0
  Ti  Ti299  1  0.50000000  0.22727273  0.34084017  1.0
  Ti  Ti300  1  0.50000000  0.31818182  0.34084017  1.0
  Ti  Ti301  1  0.50000000  0.40909091  0.34084017  1.0
  Ti  Ti302  1  0.50000000  0.50000000  0.34084017  1.0
  Ti  Ti303  1  0.50000000  0.59090909  0.34084017  1.0
  Ti  Ti304  1  0.50000000  0.68181818  0.34084017  1.0
  Ti  Ti305  1  0.50000000  0.77272727  0.34084017  1.0
  Ti  Ti306  1  0.50000000  0.86363636  0.34084017  1.0
  Ti  Ti307  1  0.50000000  0.95454545  0.34084017  1.0
  Ti  Ti308  1  0.59090909  0.04545455  0.34084017  1.0
  Ti  Ti309  1  0.59090909  0.13636364  0.34084017  1.0
  Ti  Ti310  1  0.59090909  0.22727273  0.34084017  1.0
  Ti  Ti311  1  0.59090909  0.31818182  0.34084017  1.0
  Ti  Ti312  1  0.59090909  0.40909091  0.34084017  1.0
  Ti  Ti313  1  0.59090909  0.50000000  0.34084017  1.0
  Ti  Ti314  1  0.59090909  0.59090909  0.34084017  1.0
  Ti  Ti315  1  0.59090909  0.68181818  0.34084017  1.0
  Ti  Ti316  1  0.59090909  0.77272727  0.34084017  1.0
  Ti  Ti317  1  0.59090909  0.86363636  0.34084017  1.0
  Ti  Ti318  1  0.59090909  0.95454545  0.34084017  1.0
  Ti  Ti319  1  0.68181818  0.04545455  0.34084017  1.0
  Ti  Ti320  1  0.68181818  0.13636364  0.34084017  1.0
  Ti  Ti321  1  0.68181818  0.22727273  0.34084017  1.0
  Ti  Ti322  1  0.68181818  0.31818182  0.34084017  1.0
  Ti  Ti323  1  0.68181818  0.40909091  0.34084017  1.0
  Ti  Ti324  1  0.68181818  0.50000000  0.34084017  1.0
  Ti  Ti325  1  0.68181818  0.59090909  0.34084017  1.0
  Ti  Ti326  1  0.68181818  0.68181818  0.34084017  1.0
  Ti  Ti327  1  0.68181818  0.77272727  0.34084017  1.0
  Ti  Ti328  1  0.68181818  0.86363636  0.34084017  1.0
  Ti  Ti329  1  0.68181818  0.95454545  0.34084017  1.0
  Ti  Ti330  1  0.77272727  0.04545455  0.34084017  1.0
  Ti  Ti331  1  0.77272727  0.13636364  0.34084017  1.0
  Ti  Ti332  1  0.77272727  0.22727273  0.34084017  1.0
  Ti  Ti333  1  0.77272727  0.31818182  0.34084017  1.0
  Ti  Ti334  1  0.77272727  0.40909091  0.34084017  1.0
  Ti  Ti335  1  0.77272727  0.50000000  0.34084017  1.0
  Ti  Ti336  1  0.77272727  0.59090909  0.34084017  1.0
  Ti  Ti337  1  0.77272727  0.68181818  0.34084017  1.0
  Ti  Ti338  1  0.77272727  0.77272727  0.34084017  1.0
  Ti  Ti339  1  0.77272727  0.86363636  0.34084017  1.0
  Ti  Ti340  1  0.77272727  0.95454545  0.34084017  1.0
  Ti  Ti341  1  0.86363636  0.04545455  0.34084017  1.0
  Ti  Ti342  1  0.86363636  0.13636364  0.34084017  1.0
  Ti  Ti343  1  0.86363636  0.22727273  0.34084017  1.0
  Ti  Ti344  1  0.86363636  0.31818182  0.34084017  1.0
  Ti  Ti345  1  0.86363636  0.40909091  0.34084017  1.0
  Ti  Ti346  1  0.86363636  0.50000000  0.34084017  1.0
  Ti  Ti347  1  0.86363636  0.59090909  0.34084017  1.0
  Ti  Ti348  1  0.86363636  0.68181818  0.34084017  1.0
  Ti  Ti349  1  0.86363636  0.77272727  0.34084017  1.0
  Ti  Ti350  1  0.86363636  0.86363636  0.34084017  1.0
  Ti  Ti351  1  0.86363636  0.95454545  0.34084017  1.0
  Ti  Ti352  1  0.95454545  0.04545455  0.34084017  1.0
  Ti  Ti353  1  0.95454545  0.13636364  0.34084017  1.0
  Ti  Ti354  1  0.95454545  0.22727273  0.34084017  1.0
  Ti  Ti355  1  0.95454545  0.31818182  0.34084017  1.0
  Ti  Ti356  1  0.95454545  0.40909091  0.34084017  1.0
  Ti  Ti357  1  0.95454545  0.50000000  0.34084017  1.0
  Ti  Ti358  1  0.95454545  0.59090909  0.34084017  1.0
  Ti  Ti359  1  0.95454545  0.68181818  0.34084017  1.0
  Ti  Ti360  1  0.95454545  0.77272727  0.34084017  1.0
  Ti  Ti361  1  0.95454545  0.86363636  0.34084017  1.0
  Ti  Ti362  1  0.95454545  0.95454545  0.34084017  1.0
  Ti  Ti363  1  0.00000000  0.09090909  0.26941160  1.0
  Ti  Ti364  1  0.00000000  0.18181818  0.26941160  1.0
  Ti  Ti365  1  0.00000000  0.27272727  0.26941160  1.0
  Ti  Ti366  1  0.00000000  0.36363636  0.26941160  1.0
  Ti  Ti367  1  0.00000000  0.45454545  0.26941160  1.0
  Ti  Ti368  1  0.00000000  0.54545455  0.26941160  1.0
  Ti  Ti369  1  0.00000000  0.63636364  0.26941160  1.0
  Ti  Ti370  1  0.00000000  0.72727273  0.26941160  1.0
  Ti  Ti371  1  0.00000000  0.81818182  0.26941160  1.0
  Ti  Ti372  1  0.00000000  0.90909091  0.26941160  1.0
  Ti  Ti373  1  0.00000000  0.00000000  0.26941160  1.0
  Ti  Ti374  1  0.09090909  0.09090909  0.26941160  1.0
  Ti  Ti375  1  0.09090909  0.18181818  0.26941160  1.0
  Ti  Ti376  1  0.09090909  0.27272727  0.26941160  1.0
  Ti  Ti377  1  0.09090909  0.36363636  0.26941160  1.0
  Ti  Ti378  1  0.09090909  0.45454545  0.26941160  1.0
  Ti  Ti379  1  0.09090909  0.54545455  0.26941160  1.0
  Ti  Ti380  1  0.09090909  0.63636364  0.26941160  1.0
  Ti  Ti381  1  0.09090909  0.72727273  0.26941160  1.0
  Ti  Ti382  1  0.09090909  0.81818182  0.26941160  1.0
  Ti  Ti383  1  0.09090909  0.90909091  0.26941160  1.0
  Ti  Ti384  1  0.09090909  0.00000000  0.26941160  1.0
  Ti  Ti385  1  0.18181818  0.09090909  0.26941160  1.0
  Ti  Ti386  1  0.18181818  0.18181818  0.26941160  1.0
  Ti  Ti387  1  0.18181818  0.27272727  0.26941160  1.0
  Ti  Ti388  1  0.18181818  0.36363636  0.26941160  1.0
  Ti  Ti389  1  0.18181818  0.45454545  0.26941160  1.0
  Ti  Ti390  1  0.18181818  0.54545455  0.26941160  1.0
  Ti  Ti391  1  0.18181818  0.63636364  0.26941160  1.0
  Ti  Ti392  1  0.18181818  0.72727273  0.26941160  1.0
  Ti  Ti393  1  0.18181818  0.81818182  0.26941160  1.0
  Ti  Ti394  1  0.18181818  0.90909091  0.26941160  1.0
  Ti  Ti395  1  0.18181818  0.00000000  0.26941160  1.0
  Ti  Ti396  1  0.27272727  0.09090909  0.26941160  1.0
  Ti  Ti397  1  0.27272727  0.18181818  0.26941160  1.0
  Ti  Ti398  1  0.27272727  0.27272727  0.26941160  1.0
  Ti  Ti399  1  0.27272727  0.36363636  0.26941160  1.0
  Ti  Ti400  1  0.27272727  0.45454545  0.26941160  1.0
  Ti  Ti401  1  0.27272727  0.54545455  0.26941160  1.0
  Ti  Ti402  1  0.27272727  0.63636364  0.26941160  1.0
  Ti  Ti403  1  0.27272727  0.72727273  0.26941160  1.0
  Ti  Ti404  1  0.27272727  0.81818182  0.26941160  1.0
  Ti  Ti405  1  0.27272727  0.90909091  0.26941160  1.0
  Ti  Ti406  1  0.27272727  0.00000000  0.26941160  1.0
  Ti  Ti407  1  0.36363636  0.09090909  0.26941160  1.0
  Ti  Ti408  1  0.36363636  0.18181818  0.26941160  1.0
  Ti  Ti409  1  0.36363636  0.27272727  0.26941160  1.0
  Ti  Ti410  1  0.36363636  0.36363636  0.26941160  1.0
  Ti  Ti411  1  0.36363636  0.45454545  0.26941160  1.0
  Ti  Ti412  1  0.36363636  0.54545455  0.26941160  1.0
  Ti  Ti413  1  0.36363636  0.63636364  0.26941160  1.0
  Ti  Ti414  1  0.36363636  0.72727273  0.26941160  1.0
  Ti  Ti415  1  0.36363636  0.81818182  0.26941160  1.0
  Ti  Ti416  1  0.36363636  0.90909091  0.26941160  1.0
  Ti  Ti417  1  0.36363636  0.00000000  0.26941160  1.0
  Ti  Ti418  1  0.45454545  0.09090909  0.26941160  1.0
  Ti  Ti419  1  0.45454545  0.18181818  0.26941160  1.0
  Ti  Ti420  1  0.45454545  0.27272727  0.26941160  1.0
  Ti  Ti421  1  0.45454545  0.36363636  0.26941160  1.0
  Ti  Ti422  1  0.45454545  0.45454545  0.26941160  1.0
  Ti  Ti423  1  0.45454545  0.54545455  0.26941160  1.0
  Ti  Ti424  1  0.45454545  0.63636364  0.26941160  1.0
  Ti  Ti425  1  0.45454545  0.72727273  0.26941160  1.0
  Ti  Ti426  1  0.45454545  0.81818182  0.26941160  1.0
  Ti  Ti427  1  0.45454545  0.90909091  0.26941160  1.0
  Ti  Ti428  1  0.45454545  0.00000000  0.26941160  1.0
  Ti  Ti429  1  0.54545455  0.09090909  0.26941160  1.0
  Ti  Ti430  1  0.54545455  0.18181818  0.26941160  1.0
  Ti  Ti431  1  0.54545455  0.27272727  0.26941160  1.0
  Ti  Ti432  1  0.54545455  0.36363636  0.26941160  1.0
  Ti  Ti433  1  0.54545455  0.45454545  0.26941160  1.0
  Ti  Ti434  1  0.54545455  0.54545455  0.26941160  1.0
  Ti  Ti435  1  0.54545455  0.63636364  0.26941160  1.0
  Ti  Ti436  1  0.54545455  0.72727273  0.26941160  1.0
  Ti  Ti437  1  0.54545455  0.81818182  0.26941160  1.0
  Ti  Ti438  1  0.54545455  0.90909091  0.26941160  1.0
  Ti  Ti439  1  0.54545455  0.00000000  0.26941160  1.0
  Ti  Ti440  1  0.63636364  0.09090909  0.26941160  1.0
  Ti  Ti441  1  0.63636364  0.18181818  0.26941160  1.0
  Ti  Ti442  1  0.63636364  0.27272727  0.26941160  1.0
  Ti  Ti443  1  0.63636364  0.36363636  0.26941160  1.0
  Ti  Ti444  1  0.63636364  0.45454545  0.26941160  1.0
  Ti  Ti445  1  0.63636364  0.54545455  0.26941160  1.0
  Ti  Ti446  1  0.63636364  0.63636364  0.26941160  1.0
  Ti  Ti447  1  0.63636364  0.72727273  0.26941160  1.0
  Ti  Ti448  1  0.63636364  0.81818182  0.26941160  1.0
  Ti  Ti449  1  0.63636364  0.90909091  0.26941160  1.0
  Ti  Ti450  1  0.63636364  0.00000000  0.26941160  1.0
  Ti  Ti451  1  0.72727273  0.09090909  0.26941160  1.0
  Ti  Ti452  1  0.72727273  0.18181818  0.26941160  1.0
  Ti  Ti453  1  0.72727273  0.27272727  0.26941160  1.0
  Ti  Ti454  1  0.72727273  0.36363636  0.26941160  1.0
  Ti  Ti455  1  0.72727273  0.45454545  0.26941160  1.0
  Ti  Ti456  1  0.72727273  0.54545455  0.26941160  1.0
  Ti  Ti457  1  0.72727273  0.63636364  0.26941160  1.0
  Ti  Ti458  1  0.72727273  0.72727273  0.26941160  1.0
  Ti  Ti459  1  0.72727273  0.81818182  0.26941160  1.0
  Ti  Ti460  1  0.72727273  0.90909091  0.26941160  1.0
  Ti  Ti461  1  0.72727273  0.00000000  0.26941160  1.0
  Ti  Ti462  1  0.81818182  0.09090909  0.26941160  1.0
  Ti  Ti463  1  0.81818182  0.18181818  0.26941160  1.0
  Ti  Ti464  1  0.81818182  0.27272727  0.26941160  1.0
  Ti  Ti465  1  0.81818182  0.36363636  0.26941160  1.0
  Ti  Ti466  1  0.81818182  0.45454545  0.26941160  1.0
  Ti  Ti467  1  0.81818182  0.54545455  0.26941160  1.0
  Ti  Ti468  1  0.81818182  0.63636364  0.26941160  1.0
  Ti  Ti469  1  0.81818182  0.72727273  0.26941160  1.0
  Ti  Ti470  1  0.81818182  0.81818182  0.26941160  1.0
  Ti  Ti471  1  0.81818182  0.90909091  0.26941160  1.0
  Ti  Ti472  1  0.81818182  0.00000000  0.26941160  1.0
  Ti  Ti473  1  0.90909091  0.09090909  0.26941160  1.0
  Ti  Ti474  1  0.90909091  0.18181818  0.26941160  1.0
  Ti  Ti475  1  0.90909091  0.27272727  0.26941160  1.0
  Ti  Ti476  1  0.90909091  0.36363636  0.26941160  1.0
  Ti  Ti477  1  0.90909091  0.45454545  0.26941160  1.0
  Ti  Ti478  1  0.90909091  0.54545455  0.26941160  1.0
  Ti  Ti479  1  0.90909091  0.63636364  0.26941160  1.0
  Ti  Ti480  1  0.90909091  0.72727273  0.26941160  1.0
  Ti  Ti481  1  0.90909091  0.81818182  0.26941160  1.0
  Ti  Ti482  1  0.90909091  0.90909091  0.26941160  1.0
  Ti  Ti483  1  0.90909091  0.00000000  0.26941160  1.0
  Ti  Ti484  1  0.04545455  0.04545455  0.41226874  1.0
  Ti  Ti485  1  0.04545455  0.13636364  0.41226874  1.0
  Ti  Ti486  1  0.04545455  0.22727273  0.41226874  1.0
  Ti  Ti487  1  0.04545455  0.31818182  0.41226874  1.0
  Ti  Ti488  1  0.04545455  0.40909091  0.41226874  1.0
  Ti  Ti489  1  0.04545455  0.50000000  0.41226874  1.0
  Ti  Ti490  1  0.04545455  0.59090909  0.41226874  1.0
  Ti  Ti491  1  0.04545455  0.68181818  0.41226874  1.0
  Ti  Ti492  1  0.04545455  0.77272727  0.41226874  1.0
  Ti  Ti493  1  0.04545455  0.86363636  0.41226874  1.0
  Ti  Ti494  1  0.04545455  0.95454545  0.41226874  1.0
  Ti  Ti495  1  0.13636364  0.04545455  0.41226874  1.0
  Ti  Ti496  1  0.13636364  0.13636364  0.41226874  1.0
  Ti  Ti497  1  0.13636364  0.22727273  0.41226874  1.0
  Ti  Ti498  1  0.13636364  0.31818182  0.41226874  1.0
  Ti  Ti499  1  0.13636364  0.40909091  0.41226874  1.0
  Ti  Ti500  1  0.13636364  0.50000000  0.41226874  1.0
  Ti  Ti501  1  0.13636364  0.59090909  0.41226874  1.0
  Ti  Ti502  1  0.13636364  0.68181818  0.41226874  1.0
  Ti  Ti503  1  0.13636364  0.77272727  0.41226874  1.0
  Ti  Ti504  1  0.13636364  0.86363636  0.41226874  1.0
  Ti  Ti505  1  0.13636364  0.95454545  0.41226874  1.0
  Ti  Ti506  1  0.22727273  0.04545455  0.41226874  1.0
  Ti  Ti507  1  0.22727273  0.13636364  0.41226874  1.0
  Ti  Ti508  1  0.22727273  0.22727273  0.41226874  1.0
  Ti  Ti509  1  0.22727273  0.31818182  0.41226874  1.0
  Ti  Ti510  1  0.22727273  0.40909091  0.41226874  1.0
  Ti  Ti511  1  0.22727273  0.50000000  0.41226874  1.0
  Ti  Ti512  1  0.22727273  0.59090909  0.41226874  1.0
  Ti  Ti513  1  0.22727273  0.68181818  0.41226874  1.0
  Ti  Ti514  1  0.22727273  0.77272727  0.41226874  1.0
  Ti  Ti515  1  0.22727273  0.86363636  0.41226874  1.0
  Ti  Ti516  1  0.22727273  0.95454545  0.41226874  1.0
  Ti  Ti517  1  0.31818182  0.04545455  0.41226874  1.0
  Ti  Ti518  1  0.31818182  0.13636364  0.41226874  1.0
  Ti  Ti519  1  0.31818182  0.22727273  0.41226874  1.0
  Ti  Ti520  1  0.31818182  0.31818182  0.41226874  1.0
  Ti  Ti521  1  0.31818182  0.40909091  0.41226874  1.0
  Ti  Ti522  1  0.31818182  0.50000000  0.41226874  1.0
  Ti  Ti523  1  0.31818182  0.59090909  0.41226874  1.0
  Ti  Ti524  1  0.31818182  0.68181818  0.41226874  1.0
  Ti  Ti525  1  0.31818182  0.77272727  0.41226874  1.0
  Ti  Ti526  1  0.31818182  0.86363636  0.41226874  1.0
  Ti  Ti527  1  0.31818182  0.95454545  0.41226874  1.0
  Ti  Ti528  1  0.40909091  0.04545455  0.41226874  1.0
  Ti  Ti529  1  0.40909091  0.13636364  0.41226874  1.0
  Ti  Ti530  1  0.40909091  0.22727273  0.41226874  1.0
  Ti  Ti531  1  0.40909091  0.31818182  0.41226874  1.0
  Ti  Ti532  1  0.40909091  0.40909091  0.41226874  1.0
  Ti  Ti533  1  0.40909091  0.50000000  0.41226874  1.0
  Ti  Ti534  1  0.40909091  0.59090909  0.41226874  1.0
  Ti  Ti535  1  0.40909091  0.68181818  0.41226874  1.0
  Ti  Ti536  1  0.40909091  0.77272727  0.41226874  1.0
  Ti  Ti537  1  0.40909091  0.86363636  0.41226874  1.0
  Ti  Ti538  1  0.40909091  0.95454545  0.41226874  1.0
  Ti  Ti539  1  0.50000000  0.04545455  0.41226874  1.0
  Ti  Ti540  1  0.50000000  0.13636364  0.41226874  1.0
  Ti  Ti541  1  0.50000000  0.22727273  0.41226874  1.0
  Ti  Ti542  1  0.50000000  0.31818182  0.41226874  1.0
  Ti  Ti543  1  0.50000000  0.40909091  0.41226874  1.0
  Ti  Ti544  1  0.50000000  0.50000000  0.41226874  1.0
  Ti  Ti545  1  0.50000000  0.59090909  0.41226874  1.0
  Ti  Ti546  1  0.50000000  0.68181818  0.41226874  1.0
  Ti  Ti547  1  0.50000000  0.77272727  0.41226874  1.0
  Ti  Ti548  1  0.50000000  0.86363636  0.41226874  1.0
  Ti  Ti549  1  0.50000000  0.95454545  0.41226874  1.0
  Ti  Ti550  1  0.59090909  0.04545455  0.41226874  1.0
  Ti  Ti551  1  0.59090909  0.13636364  0.41226874  1.0
  Ti  Ti552  1  0.59090909  0.22727273  0.41226874  1.0
  Ti  Ti553  1  0.59090909  0.31818182  0.41226874  1.0
  Ti  Ti554  1  0.59090909  0.40909091  0.41226874  1.0
  Ti  Ti555  1  0.59090909  0.50000000  0.41226874  1.0
  Ti  Ti556  1  0.59090909  0.59090909  0.41226874  1.0
  Ti  Ti557  1  0.59090909  0.68181818  0.41226874  1.0
  Ti  Ti558  1  0.59090909  0.77272727  0.41226874  1.0
  Ti  Ti559  1  0.59090909  0.86363636  0.41226874  1.0
  Ti  Ti560  1  0.59090909  0.95454545  0.41226874  1.0
  Ti  Ti561  1  0.68181818  0.04545455  0.41226874  1.0
  Ti  Ti562  1  0.68181818  0.13636364  0.41226874  1.0
  Ti  Ti563  1  0.68181818  0.22727273  0.41226874  1.0
  Ti  Ti564  1  0.68181818  0.31818182  0.41226874  1.0
  Ti  Ti565  1  0.68181818  0.40909091  0.41226874  1.0
  Ti  Ti566  1  0.68181818  0.50000000  0.41226874  1.0
  Ti  Ti567  1  0.68181818  0.59090909  0.41226874  1.0
  Ti  Ti568  1  0.68181818  0.68181818  0.41226874  1.0
  Ti  Ti569  1  0.68181818  0.77272727  0.41226874  1.0
  Ti  Ti570  1  0.68181818  0.86363636  0.41226874  1.0
  Ti  Ti571  1  0.68181818  0.95454545  0.41226874  1.0
  Ti  Ti572  1  0.77272727  0.04545455  0.41226874  1.0
  Ti  Ti573  1  0.77272727  0.13636364  0.41226874  1.0
  Ti  Ti574  1  0.77272727  0.22727273  0.41226874  1.0
  Ti  Ti575  1  0.77272727  0.31818182  0.41226874  1.0
  Ti  Ti576  1  0.77272727  0.40909091  0.41226874  1.0
  Ti  Ti577  1  0.77272727  0.50000000  0.41226874  1.0
  Ti  Ti578  1  0.77272727  0.59090909  0.41226874  1.0
  Ti  Ti579  1  0.77272727  0.68181818  0.41226874  1.0
  Ti  Ti580  1  0.77272727  0.77272727  0.41226874  1.0
  Ti  Ti581  1  0.77272727  0.86363636  0.41226874  1.0
  Ti  Ti582  1  0.77272727  0.95454545  0.41226874  1.0
  Ti  Ti583  1  0.86363636  0.04545455  0.41226874  1.0
  Ti  Ti584  1  0.86363636  0.13636364  0.41226874  1.0
  Ti  Ti585  1  0.86363636  0.22727273  0.41226874  1.0
  Ti  Ti586  1  0.86363636  0.31818182  0.41226874  1.0
  Ti  Ti587  1  0.86363636  0.40909091  0.41226874  1.0
  Ti  Ti588  1  0.86363636  0.50000000  0.41226874  1.0
  Ti  Ti589  1  0.86363636  0.59090909  0.41226874  1.0
  Ti  Ti590  1  0.86363636  0.68181818  0.41226874  1.0
  Ti  Ti591  1  0.86363636  0.77272727  0.41226874  1.0
  Ti  Ti592  1  0.86363636  0.86363636  0.41226874  1.0
  Ti  Ti593  1  0.86363636  0.95454545  0.41226874  1.0
  Ti  Ti594  1  0.95454545  0.04545455  0.41226874  1.0
  Ti  Ti595  1  0.95454545  0.13636364  0.41226874  1.0
  Ti  Ti596  1  0.95454545  0.22727273  0.41226874  1.0
  Ti  Ti597  1  0.95454545  0.31818182  0.41226874  1.0
  Ti  Ti598  1  0.95454545  0.40909091  0.41226874  1.0
  Ti  Ti599  1  0.95454545  0.50000000  0.41226874  1.0
  Ti  Ti600  1  0.95454545  0.59090909  0.41226874  1.0
  Ti  Ti601  1  0.95454545  0.68181818  0.41226874  1.0
  Ti  Ti602  1  0.95454545  0.77272727  0.41226874  1.0
  Ti  Ti603  1  0.95454545  0.86363636  0.41226874  1.0
  Ti  Ti604  1  0.95454545  0.95454545  0.41226874  1.0
  Ti  Ti605  1  0.00000000  0.00000000  0.48369731  1.0
  Ti  Ti606  1  0.00000000  0.09090909  0.48369731  1.0
  Ti  Ti607  1  0.00000000  0.18181818  0.48369731  1.0
  Ti  Ti608  1  0.00000000  0.27272727  0.48369731  1.0
  Ti  Ti609  1  0.00000000  0.36363636  0.48369731  1.0
  Ti  Ti610  1  0.00000000  0.45454545  0.48369731  1.0
  Ti  Ti611  1  0.00000000  0.54545455  0.48369731  1.0
  Ti  Ti612  1  0.00000000  0.63636364  0.48369731  1.0
  Ti  Ti613  1  0.00000000  0.72727273  0.48369731  1.0
  Ti  Ti614  1  0.00000000  0.81818182  0.48369731  1.0
  Ti  Ti615  1  0.00000000  0.90909091  0.48369731  1.0
  Ti  Ti616  1  0.09090909  0.00000000  0.48369731  1.0
  Ti  Ti617  1  0.09090909  0.09090909  0.48369731  1.0
  Ti  Ti618  1  0.09090909  0.18181818  0.48369731  1.0
  Ti  Ti619  1  0.09090909  0.27272727  0.48369731  1.0
  Ti  Ti620  1  0.09090909  0.36363636  0.48369731  1.0
  Ti  Ti621  1  0.09090909  0.45454545  0.48369731  1.0
  Ti  Ti622  1  0.09090909  0.54545455  0.48369731  1.0
  Ti  Ti623  1  0.09090909  0.63636364  0.48369731  1.0
  Ti  Ti624  1  0.09090909  0.72727273  0.48369731  1.0
  Ti  Ti625  1  0.09090909  0.81818182  0.48369731  1.0
  Ti  Ti626  1  0.09090909  0.90909091  0.48369731  1.0
  Ti  Ti627  1  0.18181818  0.00000000  0.48369731  1.0
  Ti  Ti628  1  0.18181818  0.09090909  0.48369731  1.0
  Ti  Ti629  1  0.18181818  0.18181818  0.48369731  1.0
  Ti  Ti630  1  0.18181818  0.27272727  0.48369731  1.0
  Ti  Ti631  1  0.18181818  0.36363636  0.48369731  1.0
  Ti  Ti632  1  0.18181818  0.45454545  0.48369731  1.0
  Ti  Ti633  1  0.18181818  0.54545455  0.48369731  1.0
  Ti  Ti634  1  0.18181818  0.63636364  0.48369731  1.0
  Ti  Ti635  1  0.18181818  0.72727273  0.48369731  1.0
  Ti  Ti636  1  0.18181818  0.81818182  0.48369731  1.0
  Ti  Ti637  1  0.18181818  0.90909091  0.48369731  1.0
  Ti  Ti638  1  0.27272727  0.00000000  0.48369731  1.0
  Ti  Ti639  1  0.27272727  0.09090909  0.48369731  1.0
  Ti  Ti640  1  0.27272727  0.18181818  0.48369731  1.0
  Ti  Ti641  1  0.27272727  0.27272727  0.48369731  1.0
  Ti  Ti642  1  0.27272727  0.36363636  0.48369731  1.0
  Ti  Ti643  1  0.27272727  0.45454545  0.48369731  1.0
  Ti  Ti644  1  0.27272727  0.54545455  0.48369731  1.0
  Ti  Ti645  1  0.27272727  0.63636364  0.48369731  1.0
  Ti  Ti646  1  0.27272727  0.72727273  0.48369731  1.0
  Ti  Ti647  1  0.27272727  0.81818182  0.48369731  1.0
  Ti  Ti648  1  0.27272727  0.90909091  0.48369731  1.0
  Ti  Ti649  1  0.36363636  0.00000000  0.48369731  1.0
  Ti  Ti650  1  0.36363636  0.09090909  0.48369731  1.0
  Ti  Ti651  1  0.36363636  0.18181818  0.48369731  1.0
  Ti  Ti652  1  0.36363636  0.27272727  0.48369731  1.0
  Ti  Ti653  1  0.36363636  0.36363636  0.48369731  1.0
  Ti  Ti654  1  0.36363636  0.45454545  0.48369731  1.0
  Ti  Ti655  1  0.36363636  0.54545455  0.48369731  1.0
  Ti  Ti656  1  0.36363636  0.63636364  0.48369731  1.0
  Ti  Ti657  1  0.36363636  0.72727273  0.48369731  1.0
  Ti  Ti658  1  0.36363636  0.81818182  0.48369731  1.0
  Ti  Ti659  1  0.36363636  0.90909091  0.48369731  1.0
  Ti  Ti660  1  0.45454545  0.00000000  0.48369731  1.0
  Ti  Ti661  1  0.45454545  0.09090909  0.48369731  1.0
  Ti  Ti662  1  0.45454545  0.18181818  0.48369731  1.0
  Ti  Ti663  1  0.45454545  0.27272727  0.48369731  1.0
  Ti  Ti664  1  0.45454545  0.36363636  0.48369731  1.0
  Ti  Ti665  1  0.45454545  0.45454545  0.48369731  1.0
  Ti  Ti666  1  0.45454545  0.54545455  0.48369731  1.0
  Ti  Ti667  1  0.45454545  0.63636364  0.48369731  1.0
  Ti  Ti668  1  0.45454545  0.72727273  0.48369731  1.0
  Ti  Ti669  1  0.45454545  0.81818182  0.48369731  1.0
  Ti  Ti670  1  0.45454545  0.90909091  0.48369731  1.0
  Ti  Ti671  1  0.54545455  0.00000000  0.48369731  1.0
  Ti  Ti672  1  0.54545455  0.09090909  0.48369731  1.0
  Ti  Ti673  1  0.54545455  0.18181818  0.48369731  1.0
  Ti  Ti674  1  0.54545455  0.27272727  0.48369731  1.0
  Ti  Ti675  1  0.54545455  0.36363636  0.48369731  1.0
  Ti  Ti676  1  0.54545455  0.45454545  0.48369731  1.0
  Ti  Ti677  1  0.54545455  0.54545455  0.48369731  1.0
  Ti  Ti678  1  0.54545455  0.63636364  0.48369731  1.0
  Ti  Ti679  1  0.54545455  0.72727273  0.48369731  1.0
  Ti  Ti680  1  0.54545455  0.81818182  0.48369731  1.0
  Ti  Ti681  1  0.54545455  0.90909091  0.48369731  1.0
  Ti  Ti682  1  0.63636364  0.00000000  0.48369731  1.0
  Ti  Ti683  1  0.63636364  0.09090909  0.48369731  1.0
  Ti  Ti684  1  0.63636364  0.18181818  0.48369731  1.0
  Ti  Ti685  1  0.63636364  0.27272727  0.48369731  1.0
  Ti  Ti686  1  0.63636364  0.36363636  0.48369731  1.0
  Ti  Ti687  1  0.63636364  0.45454545  0.48369731  1.0
  Ti  Ti688  1  0.63636364  0.54545455  0.48369731  1.0
  Ti  Ti689  1  0.63636364  0.63636364  0.48369731  1.0
  Ti  Ti690  1  0.63636364  0.72727273  0.48369731  1.0
  Ti  Ti691  1  0.63636364  0.81818182  0.48369731  1.0
  Ti  Ti692  1  0.63636364  0.90909091  0.48369731  1.0
  Ti  Ti693  1  0.72727273  0.00000000  0.48369731  1.0
  Ti  Ti694  1  0.72727273  0.09090909  0.48369731  1.0
  Ti  Ti695  1  0.72727273  0.18181818  0.48369731  1.0
  Ti  Ti696  1  0.72727273  0.27272727  0.48369731  1.0
  Ti  Ti697  1  0.72727273  0.36363636  0.48369731  1.0
  Ti  Ti698  1  0.72727273  0.45454545  0.48369731  1.0
  Ti  Ti699  1  0.72727273  0.54545455  0.48369731  1.0
  Ti  Ti700  1  0.72727273  0.63636364  0.48369731  1.0
  Ti  Ti701  1  0.72727273  0.72727273  0.48369731  1.0
  Ti  Ti702  1  0.72727273  0.81818182  0.48369731  1.0
  Ti  Ti703  1  0.72727273  0.90909091  0.48369731  1.0
  Ti  Ti704  1  0.81818182  0.00000000  0.48369731  1.0
  Ti  Ti705  1  0.81818182  0.09090909  0.48369731  1.0
  Ti  Ti706  1  0.81818182  0.18181818  0.48369731  1.0
  Ti  Ti707  1  0.81818182  0.27272727  0.48369731  1.0
  Ti  Ti708  1  0.81818182  0.36363636  0.48369731  1.0
  Ti  Ti709  1  0.81818182  0.45454545  0.48369731  1.0
  Ti  Ti710  1  0.81818182  0.54545455  0.48369731  1.0
  Ti  Ti711  1  0.81818182  0.63636364  0.48369731  1.0
  Ti  Ti712  1  0.81818182  0.72727273  0.48369731  1.0
  Ti  Ti713  1  0.81818182  0.81818182  0.48369731  1.0
  Ti  Ti714  1  0.81818182  0.90909091  0.48369731  1.0
  Ti  Ti715  1  0.90909091  0.00000000  0.48369731  1.0
  Ti  Ti716  1  0.90909091  0.09090909  0.48369731  1.0
  Ti  Ti717  1  0.90909091  0.18181818  0.48369731  1.0
  Ti  Ti718  1  0.90909091  0.27272727  0.48369731  1.0
  Ti  Ti719  1  0.90909091  0.36363636  0.48369731  1.0
  Ti  Ti720  1  0.90909091  0.45454545  0.48369731  1.0
  Ti  Ti721  1  0.90909091  0.54545455  0.48369731  1.0
  Ti  Ti722  1  0.90909091  0.63636364  0.48369731  1.0
  Ti  Ti723  1  0.90909091  0.72727273  0.48369731  1.0
  Ti  Ti724  1  0.90909091  0.81818182  0.48369731  1.0
  Ti  Ti725  1  0.90909091  0.90909091  0.48369731  1.0
  Ti  Ti726  1  0.04545455  0.04545455  0.48369731  1.0
  Ti  Ti727  1  0.04545455  0.13636364  0.48369731  1.0
  Ti  Ti728  1  0.04545455  0.22727273  0.48369731  1.0
  Ti  Ti729  1  0.04545455  0.31818182  0.48369731  1.0
  Ti  Ti730  1  0.04545455  0.40909091  0.48369731  1.0
  Ti  Ti731  1  0.04545455  0.50000000  0.48369731  1.0
  Ti  Ti732  1  0.04545455  0.59090909  0.48369731  1.0
  Ti  Ti733  1  0.04545455  0.68181818  0.48369731  1.0
  Ti  Ti734  1  0.04545455  0.77272727  0.48369731  1.0
  Ti  Ti735  1  0.04545455  0.86363636  0.48369731  1.0
  Ti  Ti736  1  0.04545455  0.95454545  0.48369731  1.0
  Ti  Ti737  1  0.13636364  0.04545455  0.48369731  1.0
  Ti  Ti738  1  0.13636364  0.13636364  0.48369731  1.0
  Ti  Ti739  1  0.13636364  0.22727273  0.48369731  1.0
  Ti  Ti740  1  0.13636364  0.31818182  0.48369731  1.0
  Ti  Ti741  1  0.13636364  0.40909091  0.48369731  1.0
  Ti  Ti742  1  0.13636364  0.50000000  0.48369731  1.0
  Ti  Ti743  1  0.13636364  0.59090909  0.48369731  1.0
  Ti  Ti744  1  0.13636364  0.68181818  0.48369731  1.0
  Ti  Ti745  1  0.13636364  0.77272727  0.48369731  1.0
  Ti  Ti746  1  0.13636364  0.86363636  0.48369731  1.0
  Ti  Ti747  1  0.13636364  0.95454545  0.48369731  1.0
  Ti  Ti748  1  0.22727273  0.04545455  0.48369731  1.0
  Ti  Ti749  1  0.22727273  0.13636364  0.48369731  1.0
  Ti  Ti750  1  0.22727273  0.22727273  0.48369731  1.0
  Ti  Ti751  1  0.22727273  0.31818182  0.48369731  1.0
  Ti  Ti752  1  0.22727273  0.40909091  0.48369731  1.0
  Ti  Ti753  1  0.22727273  0.50000000  0.48369731  1.0
  Ti  Ti754  1  0.22727273  0.59090909  0.48369731  1.0
  Ti  Ti755  1  0.22727273  0.68181818  0.48369731  1.0
  Ti  Ti756  1  0.22727273  0.77272727  0.48369731  1.0
  Ti  Ti757  1  0.22727273  0.86363636  0.48369731  1.0
  Ti  Ti758  1  0.22727273  0.95454545  0.48369731  1.0
  Ti  Ti759  1  0.31818182  0.04545455  0.48369731  1.0
  Ti  Ti760  1  0.31818182  0.13636364  0.48369731  1.0
  Ti  Ti761  1  0.31818182  0.22727273  0.48369731  1.0
  Ti  Ti762  1  0.31818182  0.31818182  0.48369731  1.0
  Ti  Ti763  1  0.31818182  0.40909091  0.48369731  1.0
  Ti  Ti764  1  0.31818182  0.50000000  0.48369731  1.0
  Ti  Ti765  1  0.31818182  0.59090909  0.48369731  1.0
  Ti  Ti766  1  0.31818182  0.68181818  0.48369731  1.0
  Ti  Ti767  1  0.31818182  0.77272727  0.48369731  1.0
  Ti  Ti768  1  0.31818182  0.86363636  0.48369731  1.0
  Ti  Ti769  1  0.31818182  0.95454545  0.48369731  1.0
  Ti  Ti770  1  0.40909091  0.04545455  0.48369731  1.0
  Ti  Ti771  1  0.40909091  0.13636364  0.48369731  1.0
  Ti  Ti772  1  0.40909091  0.22727273  0.48369731  1.0
  Ti  Ti773  1  0.40909091  0.31818182  0.48369731  1.0
  Ti  Ti774  1  0.40909091  0.40909091  0.48369731  1.0
  Ti  Ti775  1  0.40909091  0.50000000  0.48369731  1.0
  Ti  Ti776  1  0.40909091  0.59090909  0.48369731  1.0
  Ti  Ti777  1  0.40909091  0.68181818  0.48369731  1.0
  Ti  Ti778  1  0.40909091  0.77272727  0.48369731  1.0
  Ti  Ti779  1  0.40909091  0.86363636  0.48369731  1.0
  Ti  Ti780  1  0.40909091  0.95454545  0.48369731  1.0
  Ti  Ti781  1  0.50000000  0.04545455  0.48369731  1.0
  Ti  Ti782  1  0.50000000  0.13636364  0.48369731  1.0
  Ti  Ti783  1  0.50000000  0.22727273  0.48369731  1.0
  Ti  Ti784  1  0.50000000  0.31818182  0.48369731  1.0
  Ti  Ti785  1  0.50000000  0.40909091  0.48369731  1.0
  Ti  Ti786  1  0.50000000  0.50000000  0.48369731  1.0
  Ti  Ti787  1  0.50000000  0.59090909  0.48369731  1.0
  Ti  Ti788  1  0.50000000  0.68181818  0.48369731  1.0
  Ti  Ti789  1  0.50000000  0.77272727  0.48369731  1.0
  Ti  Ti790  1  0.50000000  0.86363636  0.48369731  1.0
  Ti  Ti791  1  0.50000000  0.95454545  0.48369731  1.0
  Ti  Ti792  1  0.59090909  0.04545455  0.48369731  1.0
  Ti  Ti793  1  0.59090909  0.13636364  0.48369731  1.0
  Ti  Ti794  1  0.59090909  0.22727273  0.48369731  1.0
  Ti  Ti795  1  0.59090909  0.31818182  0.48369731  1.0
  Ti  Ti796  1  0.59090909  0.40909091  0.48369731  1.0
  Ti  Ti797  1  0.59090909  0.50000000  0.48369731  1.0
  Ti  Ti798  1  0.59090909  0.59090909  0.48369731  1.0
  Ti  Ti799  1  0.59090909  0.68181818  0.48369731  1.0
  Ti  Ti800  1  0.59090909  0.77272727  0.48369731  1.0
  Ti  Ti801  1  0.59090909  0.86363636  0.48369731  1.0
  Ti  Ti802  1  0.59090909  0.95454545  0.48369731  1.0
  Ti  Ti803  1  0.68181818  0.04545455  0.48369731  1.0
  Ti  Ti804  1  0.68181818  0.13636364  0.48369731  1.0
  Ti  Ti805  1  0.68181818  0.22727273  0.48369731  1.0
  Ti  Ti806  1  0.68181818  0.31818182  0.48369731  1.0
  Ti  Ti807  1  0.68181818  0.40909091  0.48369731  1.0
  Ti  Ti808  1  0.68181818  0.50000000  0.48369731  1.0
  Ti  Ti809  1  0.68181818  0.59090909  0.48369731  1.0
  Ti  Ti810  1  0.68181818  0.68181818  0.48369731  1.0
  Ti  Ti811  1  0.68181818  0.77272727  0.48369731  1.0
  Ti  Ti812  1  0.68181818  0.86363636  0.48369731  1.0
  Ti  Ti813  1  0.68181818  0.95454545  0.48369731  1.0
  Ti  Ti814  1  0.77272727  0.04545455  0.48369731  1.0
  Ti  Ti815  1  0.77272727  0.13636364  0.48369731  1.0
  Ti  Ti816  1  0.77272727  0.22727273  0.48369731  1.0
  Ti  Ti817  1  0.77272727  0.31818182  0.48369731  1.0
  Ti  Ti818  1  0.77272727  0.40909091  0.48369731  1.0
  Ti  Ti819  1  0.77272727  0.50000000  0.48369731  1.0
  Ti  Ti820  1  0.77272727  0.59090909  0.48369731  1.0
  Ti  Ti821  1  0.77272727  0.68181818  0.48369731  1.0
  Ti  Ti822  1  0.77272727  0.77272727  0.48369731  1.0
  Ti  Ti823  1  0.77272727  0.86363636  0.48369731  1.0
  Ti  Ti824  1  0.77272727  0.95454545  0.48369731  1.0
  Ti  Ti825  1  0.86363636  0.04545455  0.48369731  1.0
  Ti  Ti826  1  0.86363636  0.13636364  0.48369731  1.0
  Ti  Ti827  1  0.86363636  0.22727273  0.48369731  1.0
  Ti  Ti828  1  0.86363636  0.31818182  0.48369731  1.0
  Ti  Ti829  1  0.86363636  0.40909091  0.48369731  1.0
  Ti  Ti830  1  0.86363636  0.50000000  0.48369731  1.0
  Ti  Ti831  1  0.86363636  0.59090909  0.48369731  1.0
  Ti  Ti832  1  0.86363636  0.68181818  0.48369731  1.0
  Ti  Ti833  1  0.86363636  0.77272727  0.48369731  1.0
  Ti  Ti834  1  0.86363636  0.86363636  0.48369731  1.0
  Ti  Ti835  1  0.86363636  0.95454545  0.48369731  1.0
  Ti  Ti836  1  0.95454545  0.04545455  0.48369731  1.0
  Ti  Ti837  1  0.95454545  0.13636364  0.48369731  1.0
  Ti  Ti838  1  0.95454545  0.22727273  0.48369731  1.0
  Ti  Ti839  1  0.95454545  0.31818182  0.48369731  1.0
  Ti  Ti840  1  0.95454545  0.40909091  0.48369731  1.0
  Ti  Ti841  1  0.95454545  0.50000000  0.48369731  1.0
  Ti  Ti842  1  0.95454545  0.59090909  0.48369731  1.0
  Ti  Ti843  1  0.95454545  0.68181818  0.48369731  1.0
  Ti  Ti844  1  0.95454545  0.77272727  0.48369731  1.0
  Ti  Ti845  1  0.95454545  0.86363636  0.48369731  1.0
  Ti  Ti846  1  0.95454545  0.95454545  0.48369731  1.0
  Ti  Ti847  1  0.00000000  0.09090909  0.41226874  1.0
  Ti  Ti848  1  0.00000000  0.18181818  0.41226874  1.0
  Ti  Ti849  1  0.00000000  0.27272727  0.41226874  1.0
  Ti  Ti850  1  0.00000000  0.36363636  0.41226874  1.0
  Ti  Ti851  1  0.00000000  0.45454545  0.41226874  1.0
  Ti  Ti852  1  0.00000000  0.54545455  0.41226874  1.0
  Ti  Ti853  1  0.00000000  0.63636364  0.41226874  1.0
  Ti  Ti854  1  0.00000000  0.72727273  0.41226874  1.0
  Ti  Ti855  1  0.00000000  0.81818182  0.41226874  1.0
  Ti  Ti856  1  0.00000000  0.90909091  0.41226874  1.0
  Ti  Ti857  1  0.00000000  0.00000000  0.41226874  1.0
  Ti  Ti858  1  0.09090909  0.09090909  0.41226874  1.0
  Ti  Ti859  1  0.09090909  0.18181818  0.41226874  1.0
  Ti  Ti860  1  0.09090909  0.27272727  0.41226874  1.0
  Ti  Ti861  1  0.09090909  0.36363636  0.41226874  1.0
  Ti  Ti862  1  0.09090909  0.45454545  0.41226874  1.0
  Ti  Ti863  1  0.09090909  0.54545455  0.41226874  1.0
  Ti  Ti864  1  0.09090909  0.63636364  0.41226874  1.0
  Ti  Ti865  1  0.09090909  0.72727273  0.41226874  1.0
  Ti  Ti866  1  0.09090909  0.81818182  0.41226874  1.0
  Ti  Ti867  1  0.09090909  0.90909091  0.41226874  1.0
  Ti  Ti868  1  0.09090909  0.00000000  0.41226874  1.0
  Ti  Ti869  1  0.18181818  0.09090909  0.41226874  1.0
  Ti  Ti870  1  0.18181818  0.18181818  0.41226874  1.0
  Ti  Ti871  1  0.18181818  0.27272727  0.41226874  1.0
  Ti  Ti872  1  0.18181818  0.36363636  0.41226874  1.0
  Ti  Ti873  1  0.18181818  0.45454545  0.41226874  1.0
  Ti  Ti874  1  0.18181818  0.54545455  0.41226874  1.0
  Ti  Ti875  1  0.18181818  0.63636364  0.41226874  1.0
  Ti  Ti876  1  0.18181818  0.72727273  0.41226874  1.0
  Ti  Ti877  1  0.18181818  0.81818182  0.41226874  1.0
  Ti  Ti878  1  0.18181818  0.90909091  0.41226874  1.0
  Ti  Ti879  1  0.18181818  0.00000000  0.41226874  1.0
  Ti  Ti880  1  0.27272727  0.09090909  0.41226874  1.0
  Ti  Ti881  1  0.27272727  0.18181818  0.41226874  1.0
  Ti  Ti882  1  0.27272727  0.27272727  0.41226874  1.0
  Ti  Ti883  1  0.27272727  0.36363636  0.41226874  1.0
  Ti  Ti884  1  0.27272727  0.45454545  0.41226874  1.0
  Ti  Ti885  1  0.27272727  0.54545455  0.41226874  1.0
  Ti  Ti886  1  0.27272727  0.63636364  0.41226874  1.0
  Ti  Ti887  1  0.27272727  0.72727273  0.41226874  1.0
  Ti  Ti888  1  0.27272727  0.81818182  0.41226874  1.0
  Ti  Ti889  1  0.27272727  0.90909091  0.41226874  1.0
  Ti  Ti890  1  0.27272727  0.00000000  0.41226874  1.0
  Ti  Ti891  1  0.36363636  0.09090909  0.41226874  1.0
  Ti  Ti892  1  0.36363636  0.18181818  0.41226874  1.0
  Ti  Ti893  1  0.36363636  0.27272727  0.41226874  1.0
  Ti  Ti894  1  0.36363636  0.36363636  0.41226874  1.0
  Ti  Ti895  1  0.36363636  0.45454545  0.41226874  1.0
  Ti  Ti896  1  0.36363636  0.54545455  0.41226874  1.0
  Ti  Ti897  1  0.36363636  0.63636364  0.41226874  1.0
  Ti  Ti898  1  0.36363636  0.72727273  0.41226874  1.0
  Ti  Ti899  1  0.36363636  0.81818182  0.41226874  1.0
  Ti  Ti900  1  0.36363636  0.90909091  0.41226874  1.0
  Ti  Ti901  1  0.36363636  0.00000000  0.41226874  1.0
  Ti  Ti902  1  0.45454545  0.09090909  0.41226874  1.0
  Ti  Ti903  1  0.45454545  0.18181818  0.41226874  1.0
  Ti  Ti904  1  0.45454545  0.27272727  0.41226874  1.0
  Ti  Ti905  1  0.45454545  0.36363636  0.41226874  1.0
  Ti  Ti906  1  0.45454545  0.45454545  0.41226874  1.0
  Ti  Ti907  1  0.45454545  0.54545455  0.41226874  1.0
  Ti  Ti908  1  0.45454545  0.63636364  0.41226874  1.0
  Ti  Ti909  1  0.45454545  0.72727273  0.41226874  1.0
  Ti  Ti910  1  0.45454545  0.81818182  0.41226874  1.0
  Ti  Ti911  1  0.45454545  0.90909091  0.41226874  1.0
  Ti  Ti912  1  0.45454545  0.00000000  0.41226874  1.0
  Ti  Ti913  1  0.54545455  0.09090909  0.41226874  1.0
  Ti  Ti914  1  0.54545455  0.18181818  0.41226874  1.0
  Ti  Ti915  1  0.54545455  0.27272727  0.41226874  1.0
  Ti  Ti916  1  0.54545455  0.36363636  0.41226874  1.0
  Ti  Ti917  1  0.54545455  0.45454545  0.41226874  1.0
  Ti  Ti918  1  0.54545455  0.54545455  0.41226874  1.0
  Ti  Ti919  1  0.54545455  0.63636364  0.41226874  1.0
  Ti  Ti920  1  0.54545455  0.72727273  0.41226874  1.0
  Ti  Ti921  1  0.54545455  0.81818182  0.41226874  1.0
  Ti  Ti922  1  0.54545455  0.90909091  0.41226874  1.0
  Ti  Ti923  1  0.54545455  0.00000000  0.41226874  1.0
  Ti  Ti924  1  0.63636364  0.09090909  0.41226874  1.0
  Ti  Ti925  1  0.63636364  0.18181818  0.41226874  1.0
  Ti  Ti926  1  0.63636364  0.27272727  0.41226874  1.0
  Ti  Ti927  1  0.63636364  0.36363636  0.41226874  1.0
  Ti  Ti928  1  0.63636364  0.45454545  0.41226874  1.0
  Ti  Ti929  1  0.63636364  0.54545455  0.41226874  1.0
  Ti  Ti930  1  0.63636364  0.63636364  0.41226874  1.0
  Ti  Ti931  1  0.63636364  0.72727273  0.41226874  1.0
  Ti  Ti932  1  0.63636364  0.81818182  0.41226874  1.0
  Ti  Ti933  1  0.63636364  0.90909091  0.41226874  1.0
  Ti  Ti934  1  0.63636364  0.00000000  0.41226874  1.0
  Ti  Ti935  1  0.72727273  0.09090909  0.41226874  1.0
  Ti  Ti936  1  0.72727273  0.18181818  0.41226874  1.0
  Ti  Ti937  1  0.72727273  0.27272727  0.41226874  1.0
  Ti  Ti938  1  0.72727273  0.36363636  0.41226874  1.0
  Ti  Ti939  1  0.72727273  0.45454545  0.41226874  1.0
  Ti  Ti940  1  0.72727273  0.54545455  0.41226874  1.0
  Ti  Ti941  1  0.72727273  0.63636364  0.41226874  1.0
  Ti  Ti942  1  0.72727273  0.72727273  0.41226874  1.0
  Ti  Ti943  1  0.72727273  0.81818182  0.41226874  1.0
  Ti  Ti944  1  0.72727273  0.90909091  0.41226874  1.0
  Ti  Ti945  1  0.72727273  0.00000000  0.41226874  1.0
  Ti  Ti946  1  0.81818182  0.09090909  0.41226874  1.0
  Ti  Ti947  1  0.81818182  0.18181818  0.41226874  1.0
  Ti  Ti948  1  0.81818182  0.27272727  0.41226874  1.0
  Ti  Ti949  1  0.81818182  0.36363636  0.41226874  1.0
  Ti  Ti950  1  0.81818182  0.45454545  0.41226874  1.0
  Ti  Ti951  1  0.81818182  0.54545455  0.41226874  1.0
  Ti  Ti952  1  0.81818182  0.63636364  0.41226874  1.0
  Ti  Ti953  1  0.81818182  0.72727273  0.41226874  1.0
  Ti  Ti954  1  0.81818182  0.81818182  0.41226874  1.0
  Ti  Ti955  1  0.81818182  0.90909091  0.41226874  1.0
  Ti  Ti956  1  0.81818182  0.00000000  0.41226874  1.0
  Ti  Ti957  1  0.90909091  0.09090909  0.41226874  1.0
  Ti  Ti958  1  0.90909091  0.18181818  0.41226874  1.0
  Ti  Ti959  1  0.90909091  0.27272727  0.41226874  1.0
  Ti  Ti960  1  0.90909091  0.36363636  0.41226874  1.0
  Ti  Ti961  1  0.90909091  0.45454545  0.41226874  1.0
  Ti  Ti962  1  0.90909091  0.54545455  0.41226874  1.0
  Ti  Ti963  1  0.90909091  0.63636364  0.41226874  1.0
  Ti  Ti964  1  0.90909091  0.72727273  0.41226874  1.0
  Ti  Ti965  1  0.90909091  0.81818182  0.41226874  1.0
  Ti  Ti966  1  0.90909091  0.90909091  0.41226874  1.0
  Ti  Ti967  1  0.90909091  0.00000000  0.41226874  1.0
  Ti  Ti968  1  0.04545455  0.04545455  0.55512589  1.0
  Ti  Ti969  1  0.04545455  0.13636364  0.55512589  1.0
  Ti  Ti970  1  0.04545455  0.22727273  0.55512589  1.0
  Ti  Ti971  1  0.04545455  0.31818182  0.55512589  1.0
  Ti  Ti972  1  0.04545455  0.40909091  0.55512589  1.0
  Ti  Ti973  1  0.04545455  0.50000000  0.55512589  1.0
  Ti  Ti974  1  0.04545455  0.59090909  0.55512589  1.0
  Ti  Ti975  1  0.04545455  0.68181818  0.55512589  1.0
  Ti  Ti976  1  0.04545455  0.77272727  0.55512589  1.0
  Ti  Ti977  1  0.04545455  0.86363636  0.55512589  1.0
  Ti  Ti978  1  0.04545455  0.95454545  0.55512589  1.0
  Ti  Ti979  1  0.13636364  0.04545455  0.55512589  1.0
  Ti  Ti980  1  0.13636364  0.13636364  0.55512589  1.0
  Ti  Ti981  1  0.13636364  0.22727273  0.55512589  1.0
  Ti  Ti982  1  0.13636364  0.31818182  0.55512589  1.0
  Ti  Ti983  1  0.13636364  0.40909091  0.55512589  1.0
  Ti  Ti984  1  0.13636364  0.50000000  0.55512589  1.0
  Ti  Ti985  1  0.13636364  0.59090909  0.55512589  1.0
  Ti  Ti986  1  0.13636364  0.68181818  0.55512589  1.0
  Ti  Ti987  1  0.13636364  0.77272727  0.55512589  1.0
  Ti  Ti988  1  0.13636364  0.86363636  0.55512589  1.0
  Ti  Ti989  1  0.13636364  0.95454545  0.55512589  1.0
  Ti  Ti990  1  0.22727273  0.04545455  0.55512589  1.0
  Ti  Ti991  1  0.22727273  0.13636364  0.55512589  1.0
  Ti  Ti992  1  0.22727273  0.22727273  0.55512589  1.0
  Ti  Ti993  1  0.22727273  0.31818182  0.55512589  1.0
  Ti  Ti994  1  0.22727273  0.40909091  0.55512589  1.0
  Ti  Ti995  1  0.22727273  0.50000000  0.55512589  1.0
  Ti  Ti996  1  0.22727273  0.59090909  0.55512589  1.0
  Ti  Ti997  1  0.22727273  0.68181818  0.55512589  1.0
  Ti  Ti998  1  0.22727273  0.77272727  0.55512589  1.0
  Ti  Ti999  1  0.22727273  0.86363636  0.55512589  1.0
  Ti  Ti1000  1  0.22727273  0.95454545  0.55512589  1.0
  Ti  Ti1001  1  0.31818182  0.04545455  0.55512589  1.0
  Ti  Ti1002  1  0.31818182  0.13636364  0.55512589  1.0
  Ti  Ti1003  1  0.31818182  0.22727273  0.55512589  1.0
  Ti  Ti1004  1  0.31818182  0.31818182  0.55512589  1.0
  Ti  Ti1005  1  0.31818182  0.40909091  0.55512589  1.0
  Ti  Ti1006  1  0.31818182  0.50000000  0.55512589  1.0
  Ti  Ti1007  1  0.31818182  0.59090909  0.55512589  1.0
  Ti  Ti1008  1  0.31818182  0.68181818  0.55512589  1.0
  Ti  Ti1009  1  0.31818182  0.77272727  0.55512589  1.0
  Ti  Ti1010  1  0.31818182  0.86363636  0.55512589  1.0
  Ti  Ti1011  1  0.31818182  0.95454545  0.55512589  1.0
  Ti  Ti1012  1  0.40909091  0.04545455  0.55512589  1.0
  Ti  Ti1013  1  0.40909091  0.13636364  0.55512589  1.0
  Ti  Ti1014  1  0.40909091  0.22727273  0.55512589  1.0
  Ti  Ti1015  1  0.40909091  0.31818182  0.55512589  1.0
  Ti  Ti1016  1  0.40909091  0.40909091  0.55512589  1.0
  Ti  Ti1017  1  0.40909091  0.50000000  0.55512589  1.0
  Ti  Ti1018  1  0.40909091  0.59090909  0.55512589  1.0
  Ti  Ti1019  1  0.40909091  0.68181818  0.55512589  1.0
  Ti  Ti1020  1  0.40909091  0.77272727  0.55512589  1.0
  Ti  Ti1021  1  0.40909091  0.86363636  0.55512589  1.0
  Ti  Ti1022  1  0.40909091  0.95454545  0.55512589  1.0
  Ti  Ti1023  1  0.50000000  0.04545455  0.55512589  1.0
  Ti  Ti1024  1  0.50000000  0.13636364  0.55512589  1.0
  Ti  Ti1025  1  0.50000000  0.22727273  0.55512589  1.0
  Ti  Ti1026  1  0.50000000  0.31818182  0.55512589  1.0
  Ti  Ti1027  1  0.50000000  0.40909091  0.55512589  1.0
  Ti  Ti1028  1  0.50000000  0.50000000  0.55512589  1.0
  Ti  Ti1029  1  0.50000000  0.59090909  0.55512589  1.0
  Ti  Ti1030  1  0.50000000  0.68181818  0.55512589  1.0
  Ti  Ti1031  1  0.50000000  0.77272727  0.55512589  1.0
  Ti  Ti1032  1  0.50000000  0.86363636  0.55512589  1.0
  Ti  Ti1033  1  0.50000000  0.95454545  0.55512589  1.0
  Ti  Ti1034  1  0.59090909  0.04545455  0.55512589  1.0
  Ti  Ti1035  1  0.59090909  0.13636364  0.55512589  1.0
  Ti  Ti1036  1  0.59090909  0.22727273  0.55512589  1.0
  Ti  Ti1037  1  0.59090909  0.31818182  0.55512589  1.0
  Ti  Ti1038  1  0.59090909  0.40909091  0.55512589  1.0
  Ti  Ti1039  1  0.59090909  0.50000000  0.55512589  1.0
  Ti  Ti1040  1  0.59090909  0.59090909  0.55512589  1.0
  Ti  Ti1041  1  0.59090909  0.68181818  0.55512589  1.0
  Ti  Ti1042  1  0.59090909  0.77272727  0.55512589  1.0
  Ti  Ti1043  1  0.59090909  0.86363636  0.55512589  1.0
  Ti  Ti1044  1  0.59090909  0.95454545  0.55512589  1.0
  Ti  Ti1045  1  0.68181818  0.04545455  0.55512589  1.0
  Ti  Ti1046  1  0.68181818  0.13636364  0.55512589  1.0
  Ti  Ti1047  1  0.68181818  0.22727273  0.55512589  1.0
  Ti  Ti1048  1  0.68181818  0.31818182  0.55512589  1.0
  Ti  Ti1049  1  0.68181818  0.40909091  0.55512589  1.0
  Ti  Ti1050  1  0.68181818  0.50000000  0.55512589  1.0
  Ti  Ti1051  1  0.68181818  0.59090909  0.55512589  1.0
  Ti  Ti1052  1  0.68181818  0.68181818  0.55512589  1.0
  Ti  Ti1053  1  0.68181818  0.77272727  0.55512589  1.0
  Ti  Ti1054  1  0.68181818  0.86363636  0.55512589  1.0
  Ti  Ti1055  1  0.68181818  0.95454545  0.55512589  1.0
  Ti  Ti1056  1  0.77272727  0.04545455  0.55512589  1.0
  Ti  Ti1057  1  0.77272727  0.13636364  0.55512589  1.0
  Ti  Ti1058  1  0.77272727  0.22727273  0.55512589  1.0
  Ti  Ti1059  1  0.77272727  0.31818182  0.55512589  1.0
  Ti  Ti1060  1  0.77272727  0.40909091  0.55512589  1.0
  Ti  Ti1061  1  0.77272727  0.50000000  0.55512589  1.0
  Ti  Ti1062  1  0.77272727  0.59090909  0.55512589  1.0
  Ti  Ti1063  1  0.77272727  0.68181818  0.55512589  1.0
  Ti  Ti1064  1  0.77272727  0.77272727  0.55512589  1.0
  Ti  Ti1065  1  0.77272727  0.86363636  0.55512589  1.0
  Ti  Ti1066  1  0.77272727  0.95454545  0.55512589  1.0
  Ti  Ti1067  1  0.86363636  0.04545455  0.55512589  1.0
  Ti  Ti1068  1  0.86363636  0.13636364  0.55512589  1.0
  Ti  Ti1069  1  0.86363636  0.22727273  0.55512589  1.0
  Ti  Ti1070  1  0.86363636  0.31818182  0.55512589  1.0
  Ti  Ti1071  1  0.86363636  0.40909091  0.55512589  1.0
  Ti  Ti1072  1  0.86363636  0.50000000  0.55512589  1.0
  Ti  Ti1073  1  0.86363636  0.59090909  0.55512589  1.0
  Ti  Ti1074  1  0.86363636  0.68181818  0.55512589  1.0
  Ti  Ti1075  1  0.86363636  0.77272727  0.55512589  1.0
  Ti  Ti1076  1  0.86363636  0.86363636  0.55512589  1.0
  Ti  Ti1077  1  0.86363636  0.95454545  0.55512589  1.0
  Ti  Ti1078  1  0.95454545  0.04545455  0.55512589  1.0
  Ti  Ti1079  1  0.95454545  0.13636364  0.55512589  1.0
  Ti  Ti1080  1  0.95454545  0.22727273  0.55512589  1.0
  Ti  Ti1081  1  0.95454545  0.31818182  0.55512589  1.0
  Ti  Ti1082  1  0.95454545  0.40909091  0.55512589  1.0
  Ti  Ti1083  1  0.95454545  0.50000000  0.55512589  1.0
  Ti  Ti1084  1  0.95454545  0.59090909  0.55512589  1.0
  Ti  Ti1085  1  0.95454545  0.68181818  0.55512589  1.0
  Ti  Ti1086  1  0.95454545  0.77272727  0.55512589  1.0
  Ti  Ti1087  1  0.95454545  0.86363636  0.55512589  1.0
  Ti  Ti1088  1  0.95454545  0.95454545  0.55512589  1.0
  Ti  Ti1089  1  0.09090909  0.09090909  0.62655446  1.0
  Ti  Ti1090  1  0.09090909  0.18181818  0.62655446  1.0
  Ti  Ti1091  1  0.09090909  0.27272727  0.62655446  1.0
  Ti  Ti1092  1  0.09090909  0.36363636  0.62655446  1.0
  Ti  Ti1093  1  0.09090909  0.45454545  0.62655446  1.0
  Ti  Ti1094  1  0.09090909  0.54545455  0.62655446  1.0
  Ti  Ti1095  1  0.09090909  0.63636364  0.62655446  1.0
  Ti  Ti1096  1  0.09090909  0.72727273  0.62655446  1.0
  Ti  Ti1097  1  0.09090909  0.81818182  0.62655446  1.0
  Ti  Ti1098  1  0.09090909  0.90909091  0.62655446  1.0
  Ti  Ti1099  1  0.09090909  0.00000000  0.62655446  1.0
  Ti  Ti1100  1  0.18181818  0.09090909  0.62655446  1.0
  Ti  Ti1101  1  0.18181818  0.18181818  0.62655446  1.0
  Ti  Ti1102  1  0.18181818  0.27272727  0.62655446  1.0
  Ti  Ti1103  1  0.18181818  0.36363636  0.62655446  1.0
  Ti  Ti1104  1  0.18181818  0.45454545  0.62655446  1.0
  Ti  Ti1105  1  0.18181818  0.54545455  0.62655446  1.0
  Ti  Ti1106  1  0.18181818  0.63636364  0.62655446  1.0
  Ti  Ti1107  1  0.18181818  0.72727273  0.62655446  1.0
  Ti  Ti1108  1  0.18181818  0.81818182  0.62655446  1.0
  Ti  Ti1109  1  0.18181818  0.90909091  0.62655446  1.0
  Ti  Ti1110  1  0.18181818  0.00000000  0.62655446  1.0
  Ti  Ti1111  1  0.27272727  0.09090909  0.62655446  1.0
  Ti  Ti1112  1  0.27272727  0.18181818  0.62655446  1.0
  Ti  Ti1113  1  0.27272727  0.27272727  0.62655446  1.0
  Ti  Ti1114  1  0.27272727  0.36363636  0.62655446  1.0
  Ti  Ti1115  1  0.27272727  0.45454545  0.62655446  1.0
  Ti  Ti1116  1  0.27272727  0.54545455  0.62655446  1.0
  Ti  Ti1117  1  0.27272727  0.63636364  0.62655446  1.0
  Ti  Ti1118  1  0.27272727  0.72727273  0.62655446  1.0
  Ti  Ti1119  1  0.27272727  0.81818182  0.62655446  1.0
  Ti  Ti1120  1  0.27272727  0.90909091  0.62655446  1.0
  Ti  Ti1121  1  0.27272727  0.00000000  0.62655446  1.0
  Ti  Ti1122  1  0.36363636  0.09090909  0.62655446  1.0
  Ti  Ti1123  1  0.36363636  0.18181818  0.62655446  1.0
  Ti  Ti1124  1  0.36363636  0.27272727  0.62655446  1.0
  Ti  Ti1125  1  0.36363636  0.36363636  0.62655446  1.0
  Ti  Ti1126  1  0.36363636  0.45454545  0.62655446  1.0
  Ti  Ti1127  1  0.36363636  0.54545455  0.62655446  1.0
  Ti  Ti1128  1  0.36363636  0.63636364  0.62655446  1.0
  Ti  Ti1129  1  0.36363636  0.72727273  0.62655446  1.0
  Ti  Ti1130  1  0.36363636  0.81818182  0.62655446  1.0
  Ti  Ti1131  1  0.36363636  0.90909091  0.62655446  1.0
  Ti  Ti1132  1  0.36363636  0.00000000  0.62655446  1.0
  Ti  Ti1133  1  0.45454545  0.09090909  0.62655446  1.0
  Ti  Ti1134  1  0.45454545  0.18181818  0.62655446  1.0
  Ti  Ti1135  1  0.45454545  0.27272727  0.62655446  1.0
  Ti  Ti1136  1  0.45454545  0.36363636  0.62655446  1.0
  Ti  Ti1137  1  0.45454545  0.45454545  0.62655446  1.0
  Ti  Ti1138  1  0.45454545  0.54545455  0.62655446  1.0
  Ti  Ti1139  1  0.45454545  0.63636364  0.62655446  1.0
  Ti  Ti1140  1  0.45454545  0.72727273  0.62655446  1.0
  Ti  Ti1141  1  0.45454545  0.81818182  0.62655446  1.0
  Ti  Ti1142  1  0.45454545  0.90909091  0.62655446  1.0
  Ti  Ti1143  1  0.45454545  0.00000000  0.62655446  1.0
  Ti  Ti1144  1  0.54545455  0.09090909  0.62655446  1.0
  Ti  Ti1145  1  0.54545455  0.18181818  0.62655446  1.0
  Ti  Ti1146  1  0.54545455  0.27272727  0.62655446  1.0
  Ti  Ti1147  1  0.54545455  0.36363636  0.62655446  1.0
  Ti  Ti1148  1  0.54545455  0.45454545  0.62655446  1.0
  Ti  Ti1149  1  0.54545455  0.54545455  0.62655446  1.0
  Ti  Ti1150  1  0.54545455  0.63636364  0.62655446  1.0
  Ti  Ti1151  1  0.54545455  0.72727273  0.62655446  1.0
  Ti  Ti1152  1  0.54545455  0.81818182  0.62655446  1.0
  Ti  Ti1153  1  0.54545455  0.90909091  0.62655446  1.0
  Ti  Ti1154  1  0.54545455  0.00000000  0.62655446  1.0
  Ti  Ti1155  1  0.63636364  0.09090909  0.62655446  1.0
  Ti  Ti1156  1  0.63636364  0.18181818  0.62655446  1.0
  Ti  Ti1157  1  0.63636364  0.27272727  0.62655446  1.0
  Ti  Ti1158  1  0.63636364  0.36363636  0.62655446  1.0
  Ti  Ti1159  1  0.63636364  0.45454545  0.62655446  1.0
  Ti  Ti1160  1  0.63636364  0.54545455  0.62655446  1.0
  Ti  Ti1161  1  0.63636364  0.63636364  0.62655446  1.0
  Ti  Ti1162  1  0.63636364  0.72727273  0.62655446  1.0
  Ti  Ti1163  1  0.63636364  0.81818182  0.62655446  1.0
  Ti  Ti1164  1  0.63636364  0.90909091  0.62655446  1.0
  Ti  Ti1165  1  0.63636364  0.00000000  0.62655446  1.0
  Ti  Ti1166  1  0.72727273  0.09090909  0.62655446  1.0
  Ti  Ti1167  1  0.72727273  0.18181818  0.62655446  1.0
  Ti  Ti1168  1  0.72727273  0.27272727  0.62655446  1.0
  Ti  Ti1169  1  0.72727273  0.36363636  0.62655446  1.0
  Ti  Ti1170  1  0.72727273  0.45454545  0.62655446  1.0
  Ti  Ti1171  1  0.72727273  0.54545455  0.62655446  1.0
  Ti  Ti1172  1  0.72727273  0.63636364  0.62655446  1.0
  Ti  Ti1173  1  0.72727273  0.72727273  0.62655446  1.0
  Ti  Ti1174  1  0.72727273  0.81818182  0.62655446  1.0
  Ti  Ti1175  1  0.72727273  0.90909091  0.62655446  1.0
  Ti  Ti1176  1  0.72727273  0.00000000  0.62655446  1.0
  Ti  Ti1177  1  0.81818182  0.09090909  0.62655446  1.0
  Ti  Ti1178  1  0.81818182  0.18181818  0.62655446  1.0
  Ti  Ti1179  1  0.81818182  0.27272727  0.62655446  1.0
  Ti  Ti1180  1  0.81818182  0.36363636  0.62655446  1.0
  Ti  Ti1181  1  0.81818182  0.45454545  0.62655446  1.0
  Ti  Ti1182  1  0.81818182  0.54545455  0.62655446  1.0
  Ti  Ti1183  1  0.81818182  0.63636364  0.62655446  1.0
  Ti  Ti1184  1  0.81818182  0.72727273  0.62655446  1.0
  Ti  Ti1185  1  0.81818182  0.81818182  0.62655446  1.0
  Ti  Ti1186  1  0.81818182  0.90909091  0.62655446  1.0
  Ti  Ti1187  1  0.81818182  0.00000000  0.62655446  1.0
  Ti  Ti1188  1  0.90909091  0.09090909  0.62655446  1.0
  Ti  Ti1189  1  0.90909091  0.18181818  0.62655446  1.0
  Ti  Ti1190  1  0.90909091  0.27272727  0.62655446  1.0
  Ti  Ti1191  1  0.90909091  0.36363636  0.62655446  1.0
  Ti  Ti1192  1  0.90909091  0.45454545  0.62655446  1.0
  Ti  Ti1193  1  0.90909091  0.54545455  0.62655446  1.0
  Ti  Ti1194  1  0.90909091  0.63636364  0.62655446  1.0
  Ti  Ti1195  1  0.90909091  0.72727273  0.62655446  1.0
  Ti  Ti1196  1  0.90909091  0.81818182  0.62655446  1.0
  Ti  Ti1197  1  0.90909091  0.90909091  0.62655446  1.0
  Ti  Ti1198  1  0.90909091  0.00000000  0.62655446  1.0
  Ti  Ti1199  1  0.00000000  0.09090909  0.62655446  1.0
  Ti  Ti1200  1  0.00000000  0.18181818  0.62655446  1.0
  Ti  Ti1201  1  0.00000000  0.27272727  0.62655446  1.0
  Ti  Ti1202  1  0.00000000  0.36363636  0.62655446  1.0
  Ti  Ti1203  1  0.00000000  0.45454545  0.62655446  1.0
  Ti  Ti1204  1  0.00000000  0.54545455  0.62655446  1.0
  Ti  Ti1205  1  0.00000000  0.63636364  0.62655446  1.0
  Ti  Ti1206  1  0.00000000  0.72727273  0.62655446  1.0
  Ti  Ti1207  1  1.00000000  0.81818182  0.62655446  1.0
  Ti  Ti1208  1  0.00000000  0.90909091  0.62655446  1.0
  Ti  Ti1209  1  0.00000000  0.00000000  0.62655446  1.0
  Ti  Ti1210  1  0.04545455  0.04545455  0.62655446  1.0
  Ti  Ti1211  1  0.04545455  0.13636364  0.62655446  1.0
  Ti  Ti1212  1  0.04545455  0.22727273  0.62655446  1.0
  Ti  Ti1213  1  0.04545455  0.31818182  0.62655446  1.0
  Ti  Ti1214  1  0.04545455  0.40909091  0.62655446  1.0
  Ti  Ti1215  1  0.04545455  0.50000000  0.62655446  1.0
  Ti  Ti1216  1  0.04545455  0.59090909  0.62655446  1.0
  Ti  Ti1217  1  0.04545455  0.68181818  0.62655446  1.0
  Ti  Ti1218  1  0.04545455  0.77272727  0.62655446  1.0
  Ti  Ti1219  1  0.04545455  0.86363636  0.62655446  1.0
  Ti  Ti1220  1  0.04545455  0.95454545  0.62655446  1.0
  Ti  Ti1221  1  0.13636364  0.04545455  0.62655446  1.0
  Ti  Ti1222  1  0.13636364  0.13636364  0.62655446  1.0
  Ti  Ti1223  1  0.13636364  0.22727273  0.62655446  1.0
  Ti  Ti1224  1  0.13636364  0.31818182  0.62655446  1.0
  Ti  Ti1225  1  0.13636364  0.40909091  0.62655446  1.0
  Ti  Ti1226  1  0.13636364  0.50000000  0.62655446  1.0
  Ti  Ti1227  1  0.13636364  0.59090909  0.62655446  1.0
  Ti  Ti1228  1  0.13636364  0.68181818  0.62655446  1.0
  Ti  Ti1229  1  0.13636364  0.77272727  0.62655446  1.0
  Ti  Ti1230  1  0.13636364  0.86363636  0.62655446  1.0
  Ti  Ti1231  1  0.13636364  0.95454545  0.62655446  1.0
  Ti  Ti1232  1  0.22727273  0.04545455  0.62655446  1.0
  Ti  Ti1233  1  0.22727273  0.13636364  0.62655446  1.0
  Ti  Ti1234  1  0.22727273  0.22727273  0.62655446  1.0
  Ti  Ti1235  1  0.22727273  0.31818182  0.62655446  1.0
  Ti  Ti1236  1  0.22727273  0.40909091  0.62655446  1.0
  Ti  Ti1237  1  0.22727273  0.50000000  0.62655446  1.0
  Ti  Ti1238  1  0.22727273  0.59090909  0.62655446  1.0
  Ti  Ti1239  1  0.22727273  0.68181818  0.62655446  1.0
  Ti  Ti1240  1  0.22727273  0.77272727  0.62655446  1.0
  Ti  Ti1241  1  0.22727273  0.86363636  0.62655446  1.0
  Ti  Ti1242  1  0.22727273  0.95454545  0.62655446  1.0
  Ti  Ti1243  1  0.31818182  0.04545455  0.62655446  1.0
  Ti  Ti1244  1  0.31818182  0.13636364  0.62655446  1.0
  Ti  Ti1245  1  0.31818182  0.22727273  0.62655446  1.0
  Ti  Ti1246  1  0.31818182  0.31818182  0.62655446  1.0
  Ti  Ti1247  1  0.31818182  0.40909091  0.62655446  1.0
  Ti  Ti1248  1  0.31818182  0.50000000  0.62655446  1.0
  Ti  Ti1249  1  0.31818182  0.59090909  0.62655446  1.0
  Ti  Ti1250  1  0.31818182  0.68181818  0.62655446  1.0
  Ti  Ti1251  1  0.31818182  0.77272727  0.62655446  1.0
  Ti  Ti1252  1  0.31818182  0.86363636  0.62655446  1.0
  Ti  Ti1253  1  0.31818182  0.95454545  0.62655446  1.0
  Ti  Ti1254  1  0.40909091  0.04545455  0.62655446  1.0
  Ti  Ti1255  1  0.40909091  0.13636364  0.62655446  1.0
  Ti  Ti1256  1  0.40909091  0.22727273  0.62655446  1.0
  Ti  Ti1257  1  0.40909091  0.31818182  0.62655446  1.0
  Ti  Ti1258  1  0.40909091  0.40909091  0.62655446  1.0
  Ti  Ti1259  1  0.40909091  0.50000000  0.62655446  1.0
  Ti  Ti1260  1  0.40909091  0.59090909  0.62655446  1.0
  Ti  Ti1261  1  0.40909091  0.68181818  0.62655446  1.0
  Ti  Ti1262  1  0.40909091  0.77272727  0.62655446  1.0
  Ti  Ti1263  1  0.40909091  0.86363636  0.62655446  1.0
  Ti  Ti1264  1  0.40909091  0.95454545  0.62655446  1.0
  Ti  Ti1265  1  0.50000000  0.04545455  0.62655446  1.0
  Ti  Ti1266  1  0.50000000  0.13636364  0.62655446  1.0
  Ti  Ti1267  1  0.50000000  0.22727273  0.62655446  1.0
  Ti  Ti1268  1  0.50000000  0.31818182  0.62655446  1.0
  Ti  Ti1269  1  0.50000000  0.40909091  0.62655446  1.0
  Ti  Ti1270  1  0.50000000  0.50000000  0.62655446  1.0
  Ti  Ti1271  1  0.50000000  0.59090909  0.62655446  1.0
  Ti  Ti1272  1  0.50000000  0.68181818  0.62655446  1.0
  Ti  Ti1273  1  0.50000000  0.77272727  0.62655446  1.0
  Ti  Ti1274  1  0.50000000  0.86363636  0.62655446  1.0
  Ti  Ti1275  1  0.50000000  0.95454545  0.62655446  1.0
  Ti  Ti1276  1  0.59090909  0.04545455  0.62655446  1.0
  Ti  Ti1277  1  0.59090909  0.13636364  0.62655446  1.0
  Ti  Ti1278  1  0.59090909  0.22727273  0.62655446  1.0
  Ti  Ti1279  1  0.59090909  0.31818182  0.62655446  1.0
  Ti  Ti1280  1  0.59090909  0.40909091  0.62655446  1.0
  Ti  Ti1281  1  0.59090909  0.50000000  0.62655446  1.0
  Ti  Ti1282  1  0.59090909  0.59090909  0.62655446  1.0
  Ti  Ti1283  1  0.59090909  0.68181818  0.62655446  1.0
  Ti  Ti1284  1  0.59090909  0.77272727  0.62655446  1.0
  Ti  Ti1285  1  0.59090909  0.86363636  0.62655446  1.0
  Ti  Ti1286  1  0.59090909  0.95454545  0.62655446  1.0
  Ti  Ti1287  1  0.68181818  0.04545455  0.62655446  1.0
  Ti  Ti1288  1  0.68181818  0.13636364  0.62655446  1.0
  Ti  Ti1289  1  0.68181818  0.22727273  0.62655446  1.0
  Ti  Ti1290  1  0.68181818  0.31818182  0.62655446  1.0
  Ti  Ti1291  1  0.68181818  0.40909091  0.62655446  1.0
  Ti  Ti1292  1  0.68181818  0.50000000  0.62655446  1.0
  Ti  Ti1293  1  0.68181818  0.59090909  0.62655446  1.0
  Ti  Ti1294  1  0.68181818  0.68181818  0.62655446  1.0
  Ti  Ti1295  1  0.68181818  0.77272727  0.62655446  1.0
  Ti  Ti1296  1  0.68181818  0.86363636  0.62655446  1.0
  Ti  Ti1297  1  0.68181818  0.95454545  0.62655446  1.0
  Ti  Ti1298  1  0.77272727  0.04545455  0.62655446  1.0
  Ti  Ti1299  1  0.77272727  0.13636364  0.62655446  1.0
  Ti  Ti1300  1  0.77272727  0.22727273  0.62655446  1.0
  Ti  Ti1301  1  0.77272727  0.31818182  0.62655446  1.0
  Ti  Ti1302  1  0.77272727  0.40909091  0.62655446  1.0
  Ti  Ti1303  1  0.77272727  0.50000000  0.62655446  1.0
  Ti  Ti1304  1  0.77272727  0.59090909  0.62655446  1.0
  Ti  Ti1305  1  0.77272727  0.68181818  0.62655446  1.0
  Ti  Ti1306  1  0.77272727  0.77272727  0.62655446  1.0
  Ti  Ti1307  1  0.77272727  0.86363636  0.62655446  1.0
  Ti  Ti1308  1  0.77272727  0.95454545  0.62655446  1.0
  Ti  Ti1309  1  0.86363636  0.04545455  0.62655446  1.0
  Ti  Ti1310  1  0.86363636  0.13636364  0.62655446  1.0
  Ti  Ti1311  1  0.86363636  0.22727273  0.62655446  1.0
  Ti  Ti1312  1  0.86363636  0.31818182  0.62655446  1.0
  Ti  Ti1313  1  0.86363636  0.40909091  0.62655446  1.0
  Ti  Ti1314  1  0.86363636  0.50000000  0.62655446  1.0
  Ti  Ti1315  1  0.86363636  0.59090909  0.62655446  1.0
  Ti  Ti1316  1  0.86363636  0.68181818  0.62655446  1.0
  Ti  Ti1317  1  0.86363636  0.77272727  0.62655446  1.0
  Ti  Ti1318  1  0.86363636  0.86363636  0.62655446  1.0
  Ti  Ti1319  1  0.86363636  0.95454545  0.62655446  1.0
  Ti  Ti1320  1  0.95454545  0.04545455  0.62655446  1.0
  Ti  Ti1321  1  0.95454545  0.13636364  0.62655446  1.0
  Ti  Ti1322  1  0.95454545  0.22727273  0.62655446  1.0
  Ti  Ti1323  1  0.95454545  0.31818182  0.62655446  1.0
  Ti  Ti1324  1  0.95454545  0.40909091  0.62655446  1.0
  Ti  Ti1325  1  0.95454545  0.50000000  0.62655446  1.0
  Ti  Ti1326  1  0.95454545  0.59090909  0.62655446  1.0
  Ti  Ti1327  1  0.95454545  0.68181818  0.62655446  1.0
  Ti  Ti1328  1  0.95454545  0.77272727  0.62655446  1.0
  Ti  Ti1329  1  0.95454545  0.86363636  0.62655446  1.0
  Ti  Ti1330  1  0.95454545  0.95454545  0.62655446  1.0
  Ti  Ti1331  1  0.00000000  0.09090909  0.55512589  1.0
  Ti  Ti1332  1  0.00000000  0.18181818  0.55512589  1.0
  Ti  Ti1333  1  0.00000000  0.27272727  0.55512589  1.0
  Ti  Ti1334  1  0.00000000  0.36363636  0.55512589  1.0
  Ti  Ti1335  1  0.00000000  0.45454545  0.55512589  1.0
  Ti  Ti1336  1  0.00000000  0.54545455  0.55512589  1.0
  Ti  Ti1337  1  0.00000000  0.63636364  0.55512589  1.0
  Ti  Ti1338  1  0.00000000  0.72727273  0.55512589  1.0
  Ti  Ti1339  1  0.00000000  0.81818182  0.55512589  1.0
  Ti  Ti1340  1  0.00000000  0.90909091  0.55512589  1.0
  Ti  Ti1341  1  0.00000000  0.00000000  0.55512589  1.0
  Ti  Ti1342  1  0.09090909  0.09090909  0.55512589  1.0
  Ti  Ti1343  1  0.09090909  0.18181818  0.55512589  1.0
  Ti  Ti1344  1  0.09090909  0.27272727  0.55512589  1.0
  Ti  Ti1345  1  0.09090909  0.36363636  0.55512589  1.0
  Ti  Ti1346  1  0.09090909  0.45454545  0.55512589  1.0
  Ti  Ti1347  1  0.09090909  0.54545455  0.55512589  1.0
  Ti  Ti1348  1  0.09090909  0.63636364  0.55512589  1.0
  Ti  Ti1349  1  0.09090909  0.72727273  0.55512589  1.0
  Ti  Ti1350  1  0.09090909  0.81818182  0.55512589  1.0
  Ti  Ti1351  1  0.09090909  0.90909091  0.55512589  1.0
  Ti  Ti1352  1  0.09090909  0.00000000  0.55512589  1.0
  Ti  Ti1353  1  0.18181818  0.09090909  0.55512589  1.0
  Ti  Ti1354  1  0.18181818  0.18181818  0.55512589  1.0
  Ti  Ti1355  1  0.18181818  0.27272727  0.55512589  1.0
  Ti  Ti1356  1  0.18181818  0.36363636  0.55512589  1.0
  Ti  Ti1357  1  0.18181818  0.45454545  0.55512589  1.0
  Ti  Ti1358  1  0.18181818  0.54545455  0.55512589  1.0
  Ti  Ti1359  1  0.18181818  0.63636364  0.55512589  1.0
  Ti  Ti1360  1  0.18181818  0.72727273  0.55512589  1.0
  Ti  Ti1361  1  0.18181818  0.81818182  0.55512589  1.0
  Ti  Ti1362  1  0.18181818  0.90909091  0.55512589  1.0
  Ti  Ti1363  1  0.18181818  0.00000000  0.55512589  1.0
  Ti  Ti1364  1  0.27272727  0.09090909  0.55512589  1.0
  Ti  Ti1365  1  0.27272727  0.18181818  0.55512589  1.0
  Ti  Ti1366  1  0.27272727  0.27272727  0.55512589  1.0
  Ti  Ti1367  1  0.27272727  0.36363636  0.55512589  1.0
  Ti  Ti1368  1  0.27272727  0.45454545  0.55512589  1.0
  Ti  Ti1369  1  0.27272727  0.54545455  0.55512589  1.0
  Ti  Ti1370  1  0.27272727  0.63636364  0.55512589  1.0
  Ti  Ti1371  1  0.27272727  0.72727273  0.55512589  1.0
  Ti  Ti1372  1  0.27272727  0.81818182  0.55512589  1.0
  Ti  Ti1373  1  0.27272727  0.90909091  0.55512589  1.0
  Ti  Ti1374  1  0.27272727  0.00000000  0.55512589  1.0
  Ti  Ti1375  1  0.36363636  0.09090909  0.55512589  1.0
  Ti  Ti1376  1  0.36363636  0.18181818  0.55512589  1.0
  Ti  Ti1377  1  0.36363636  0.27272727  0.55512589  1.0
  Ti  Ti1378  1  0.36363636  0.36363636  0.55512589  1.0
  Ti  Ti1379  1  0.36363636  0.45454545  0.55512589  1.0
  Ti  Ti1380  1  0.36363636  0.54545455  0.55512589  1.0
  Ti  Ti1381  1  0.36363636  0.63636364  0.55512589  1.0
  Ti  Ti1382  1  0.36363636  0.72727273  0.55512589  1.0
  Ti  Ti1383  1  0.36363636  0.81818182  0.55512589  1.0
  Ti  Ti1384  1  0.36363636  0.90909091  0.55512589  1.0
  Ti  Ti1385  1  0.36363636  0.00000000  0.55512589  1.0
  Ti  Ti1386  1  0.45454545  0.09090909  0.55512589  1.0
  Ti  Ti1387  1  0.45454545  0.18181818  0.55512589  1.0
  Ti  Ti1388  1  0.45454545  0.27272727  0.55512589  1.0
  Ti  Ti1389  1  0.45454545  0.36363636  0.55512589  1.0
  Ti  Ti1390  1  0.45454545  0.45454545  0.55512589  1.0
  Ti  Ti1391  1  0.45454545  0.54545455  0.55512589  1.0
  Ti  Ti1392  1  0.45454545  0.63636364  0.55512589  1.0
  Ti  Ti1393  1  0.45454545  0.72727273  0.55512589  1.0
  Ti  Ti1394  1  0.45454545  0.81818182  0.55512589  1.0
  Ti  Ti1395  1  0.45454545  0.90909091  0.55512589  1.0
  Ti  Ti1396  1  0.45454545  0.00000000  0.55512589  1.0
  Ti  Ti1397  1  0.54545455  0.09090909  0.55512589  1.0
  Ti  Ti1398  1  0.54545455  0.18181818  0.55512589  1.0
  Ti  Ti1399  1  0.54545455  0.27272727  0.55512589  1.0
  Ti  Ti1400  1  0.54545455  0.36363636  0.55512589  1.0
  Ti  Ti1401  1  0.54545455  0.45454545  0.55512589  1.0
  Ti  Ti1402  1  0.54545455  0.54545455  0.55512589  1.0
  Ti  Ti1403  1  0.54545455  0.63636364  0.55512589  1.0
  Ti  Ti1404  1  0.54545455  0.72727273  0.55512589  1.0
  Ti  Ti1405  1  0.54545455  0.81818182  0.55512589  1.0
  Ti  Ti1406  1  0.54545455  0.90909091  0.55512589  1.0
  Ti  Ti1407  1  0.54545455  0.00000000  0.55512589  1.0
  Ti  Ti1408  1  0.63636364  0.09090909  0.55512589  1.0
  Ti  Ti1409  1  0.63636364  0.18181818  0.55512589  1.0
  Ti  Ti1410  1  0.63636364  0.27272727  0.55512589  1.0
  Ti  Ti1411  1  0.63636364  0.36363636  0.55512589  1.0
  Ti  Ti1412  1  0.63636364  0.45454545  0.55512589  1.0
  Ti  Ti1413  1  0.63636364  0.54545455  0.55512589  1.0
  Ti  Ti1414  1  0.63636364  0.63636364  0.55512589  1.0
  Ti  Ti1415  1  0.63636364  0.72727273  0.55512589  1.0
  Ti  Ti1416  1  0.63636364  0.81818182  0.55512589  1.0
  Ti  Ti1417  1  0.63636364  0.90909091  0.55512589  1.0
  Ti  Ti1418  1  0.63636364  0.00000000  0.55512589  1.0
  Ti  Ti1419  1  0.72727273  0.09090909  0.55512589  1.0
  Ti  Ti1420  1  0.72727273  0.18181818  0.55512589  1.0
  Ti  Ti1421  1  0.72727273  0.27272727  0.55512589  1.0
  Ti  Ti1422  1  0.72727273  0.36363636  0.55512589  1.0
  Ti  Ti1423  1  0.72727273  0.45454545  0.55512589  1.0
  Ti  Ti1424  1  0.72727273  0.54545455  0.55512589  1.0
  Ti  Ti1425  1  0.72727273  0.63636364  0.55512589  1.0
  Ti  Ti1426  1  0.72727273  0.72727273  0.55512589  1.0
  Ti  Ti1427  1  0.72727273  0.81818182  0.55512589  1.0
  Ti  Ti1428  1  0.72727273  0.90909091  0.55512589  1.0
  Ti  Ti1429  1  0.72727273  0.00000000  0.55512589  1.0
  Ti  Ti1430  1  0.81818182  0.09090909  0.55512589  1.0
  Ti  Ti1431  1  0.81818182  0.18181818  0.55512589  1.0
  Ti  Ti1432  1  0.81818182  0.27272727  0.55512589  1.0
  Ti  Ti1433  1  0.81818182  0.36363636  0.55512589  1.0
  Ti  Ti1434  1  0.81818182  0.45454545  0.55512589  1.0
  Ti  Ti1435  1  0.81818182  0.54545455  0.55512589  1.0
  Ti  Ti1436  1  0.81818182  0.63636364  0.55512589  1.0
  Ti  Ti1437  1  0.81818182  0.72727273  0.55512589  1.0
  Ti  Ti1438  1  0.81818182  0.81818182  0.55512589  1.0
  Ti  Ti1439  1  0.81818182  0.90909091  0.55512589  1.0
  Ti  Ti1440  1  0.81818182  0.00000000  0.55512589  1.0
  Ti  Ti1441  1  0.90909091  0.09090909  0.55512589  1.0
  Ti  Ti1442  1  0.90909091  0.18181818  0.55512589  1.0
  Ti  Ti1443  1  0.90909091  0.27272727  0.55512589  1.0
  Ti  Ti1444  1  0.90909091  0.36363636  0.55512589  1.0
  Ti  Ti1445  1  0.90909091  0.45454545  0.55512589  1.0
  Ti  Ti1446  1  0.90909091  0.54545455  0.55512589  1.0
  Ti  Ti1447  1  0.90909091  0.63636364  0.55512589  1.0
  Ti  Ti1448  1  0.90909091  0.72727273  0.55512589  1.0
  Ti  Ti1449  1  0.90909091  0.81818182  0.55512589  1.0
  Ti  Ti1450  1  0.90909091  0.90909091  0.55512589  1.0
  Ti  Ti1451  1  0.90909091  0.00000000  0.55512589  1.0
  Ti  Ti1452  1  0.04545455  0.04545455  0.69798303  1.0
  Ti  Ti1453  1  0.04545455  0.13636364  0.69798303  1.0
  Ti  Ti1454  1  0.04545455  0.22727273  0.69798303  1.0
  Ti  Ti1455  1  0.04545455  0.31818182  0.69798303  1.0
  Ti  Ti1456  1  0.04545455  0.40909091  0.69798303  1.0
  Ti  Ti1457  1  0.04545455  0.50000000  0.69798303  1.0
  Ti  Ti1458  1  0.04545455  0.59090909  0.69798303  1.0
  Ti  Ti1459  1  0.04545455  0.68181818  0.69798303  1.0
  Ti  Ti1460  1  0.04545455  0.77272727  0.69798303  1.0
  Ti  Ti1461  1  0.04545455  0.86363636  0.69798303  1.0
  Ti  Ti1462  1  0.04545455  0.95454545  0.69798303  1.0
  Ti  Ti1463  1  0.13636364  0.04545455  0.69798303  1.0
  Ti  Ti1464  1  0.13636364  0.13636364  0.69798303  1.0
  Ti  Ti1465  1  0.13636364  0.22727273  0.69798303  1.0
  Ti  Ti1466  1  0.13636364  0.31818182  0.69798303  1.0
  Ti  Ti1467  1  0.13636364  0.40909091  0.69798303  1.0
  Ti  Ti1468  1  0.13636364  0.50000000  0.69798303  1.0
  Ti  Ti1469  1  0.13636364  0.59090909  0.69798303  1.0
  Ti  Ti1470  1  0.13636364  0.68181818  0.69798303  1.0
  Ti  Ti1471  1  0.13636364  0.77272727  0.69798303  1.0
  Ti  Ti1472  1  0.13636364  0.86363636  0.69798303  1.0
  Ti  Ti1473  1  0.13636364  0.95454545  0.69798303  1.0
  Ti  Ti1474  1  0.22727273  0.04545455  0.69798303  1.0
  Ti  Ti1475  1  0.22727273  0.13636364  0.69798303  1.0
  Ti  Ti1476  1  0.22727273  0.22727273  0.69798303  1.0
  Ti  Ti1477  1  0.22727273  0.31818182  0.69798303  1.0
  Ti  Ti1478  1  0.22727273  0.40909091  0.69798303  1.0
  Ti  Ti1479  1  0.22727273  0.50000000  0.69798303  1.0
  Ti  Ti1480  1  0.22727273  0.59090909  0.69798303  1.0
  Ti  Ti1481  1  0.22727273  0.68181818  0.69798303  1.0
  Ti  Ti1482  1  0.22727273  0.77272727  0.69798303  1.0
  Ti  Ti1483  1  0.22727273  0.86363636  0.69798303  1.0
  Ti  Ti1484  1  0.22727273  0.95454545  0.69798303  1.0
  Ti  Ti1485  1  0.31818182  0.04545455  0.69798303  1.0
  Ti  Ti1486  1  0.31818182  0.13636364  0.69798303  1.0
  Ti  Ti1487  1  0.31818182  0.22727273  0.69798303  1.0
  Ti  Ti1488  1  0.31818182  0.31818182  0.69798303  1.0
  Ti  Ti1489  1  0.31818182  0.40909091  0.69798303  1.0
  Ti  Ti1490  1  0.31818182  0.50000000  0.69798303  1.0
  Ti  Ti1491  1  0.31818182  0.59090909  0.69798303  1.0
  Ti  Ti1492  1  0.31818182  0.68181818  0.69798303  1.0
  Ti  Ti1493  1  0.31818182  0.77272727  0.69798303  1.0
  Ti  Ti1494  1  0.31818182  0.86363636  0.69798303  1.0
  Ti  Ti1495  1  0.31818182  0.95454545  0.69798303  1.0
  Ti  Ti1496  1  0.40909091  0.04545455  0.69798303  1.0
  Ti  Ti1497  1  0.40909091  0.13636364  0.69798303  1.0
  Ti  Ti1498  1  0.40909091  0.22727273  0.69798303  1.0
  Ti  Ti1499  1  0.40909091  0.31818182  0.69798303  1.0
  Ti  Ti1500  1  0.40909091  0.40909091  0.69798303  1.0
  Ti  Ti1501  1  0.40909091  0.50000000  0.69798303  1.0
  Ti  Ti1502  1  0.40909091  0.59090909  0.69798303  1.0
  Ti  Ti1503  1  0.40909091  0.68181818  0.69798303  1.0
  Ti  Ti1504  1  0.40909091  0.77272727  0.69798303  1.0
  Ti  Ti1505  1  0.40909091  0.86363636  0.69798303  1.0
  Ti  Ti1506  1  0.40909091  0.95454545  0.69798303  1.0
  Ti  Ti1507  1  0.50000000  0.04545455  0.69798303  1.0
  Ti  Ti1508  1  0.50000000  0.13636364  0.69798303  1.0
  Ti  Ti1509  1  0.50000000  0.22727273  0.69798303  1.0
  Ti  Ti1510  1  0.50000000  0.31818182  0.69798303  1.0
  Ti  Ti1511  1  0.50000000  0.40909091  0.69798303  1.0
  Ti  Ti1512  1  0.50000000  0.50000000  0.69798303  1.0
  Ti  Ti1513  1  0.50000000  0.59090909  0.69798303  1.0
  Ti  Ti1514  1  0.50000000  0.68181818  0.69798303  1.0
  Ti  Ti1515  1  0.50000000  0.77272727  0.69798303  1.0
  Ti  Ti1516  1  0.50000000  0.86363636  0.69798303  1.0
  Ti  Ti1517  1  0.50000000  0.95454545  0.69798303  1.0
  Ti  Ti1518  1  0.59090909  0.04545455  0.69798303  1.0
  Ti  Ti1519  1  0.59090909  0.13636364  0.69798303  1.0
  Ti  Ti1520  1  0.59090909  0.22727273  0.69798303  1.0
  Ti  Ti1521  1  0.59090909  0.31818182  0.69798303  1.0
  Ti  Ti1522  1  0.59090909  0.40909091  0.69798303  1.0
  Ti  Ti1523  1  0.59090909  0.50000000  0.69798303  1.0
  Ti  Ti1524  1  0.59090909  0.59090909  0.69798303  1.0
  Ti  Ti1525  1  0.59090909  0.68181818  0.69798303  1.0
  Ti  Ti1526  1  0.59090909  0.77272727  0.69798303  1.0
  Ti  Ti1527  1  0.59090909  0.86363636  0.69798303  1.0
  Ti  Ti1528  1  0.59090909  0.95454545  0.69798303  1.0
  Ti  Ti1529  1  0.68181818  0.04545455  0.69798303  1.0
  Ti  Ti1530  1  0.68181818  0.13636364  0.69798303  1.0
  Ti  Ti1531  1  0.68181818  0.22727273  0.69798303  1.0
  Ti  Ti1532  1  0.68181818  0.31818182  0.69798303  1.0
  Ti  Ti1533  1  0.68181818  0.40909091  0.69798303  1.0
  Ti  Ti1534  1  0.68181818  0.50000000  0.69798303  1.0
  Ti  Ti1535  1  0.68181818  0.59090909  0.69798303  1.0
  Ti  Ti1536  1  0.68181818  0.68181818  0.69798303  1.0
  Ti  Ti1537  1  0.68181818  0.77272727  0.69798303  1.0
  Ti  Ti1538  1  0.68181818  0.86363636  0.69798303  1.0
  Ti  Ti1539  1  0.68181818  0.95454545  0.69798303  1.0
  Ti  Ti1540  1  0.77272727  0.04545455  0.69798303  1.0
  Ti  Ti1541  1  0.77272727  0.13636364  0.69798303  1.0
  Ti  Ti1542  1  0.77272727  0.22727273  0.69798303  1.0
  Ti  Ti1543  1  0.77272727  0.31818182  0.69798303  1.0
  Ti  Ti1544  1  0.77272727  0.40909091  0.69798303  1.0
  Ti  Ti1545  1  0.77272727  0.50000000  0.69798303  1.0
  Ti  Ti1546  1  0.77272727  0.59090909  0.69798303  1.0
  Ti  Ti1547  1  0.77272727  0.68181818  0.69798303  1.0
  Ti  Ti1548  1  0.77272727  0.77272727  0.69798303  1.0
  Ti  Ti1549  1  0.77272727  0.86363636  0.69798303  1.0
  Ti  Ti1550  1  0.77272727  0.95454545  0.69798303  1.0
  Ti  Ti1551  1  0.86363636  0.04545455  0.69798303  1.0
  Ti  Ti1552  1  0.86363636  0.13636364  0.69798303  1.0
  Ti  Ti1553  1  0.86363636  0.22727273  0.69798303  1.0
  Ti  Ti1554  1  0.86363636  0.31818182  0.69798303  1.0
  Ti  Ti1555  1  0.86363636  0.40909091  0.69798303  1.0
  Ti  Ti1556  1  0.86363636  0.50000000  0.69798303  1.0
  Ti  Ti1557  1  0.86363636  0.59090909  0.69798303  1.0
  Ti  Ti1558  1  0.86363636  0.68181818  0.69798303  1.0
  Ti  Ti1559  1  0.86363636  0.77272727  0.69798303  1.0
  Ti  Ti1560  1  0.86363636  0.86363636  0.69798303  1.0
  Ti  Ti1561  1  0.86363636  0.95454545  0.69798303  1.0
  Ti  Ti1562  1  0.95454545  0.04545455  0.69798303  1.0
  Ti  Ti1563  1  0.95454545  0.13636364  0.69798303  1.0
  Ti  Ti1564  1  0.95454545  0.22727273  0.69798303  1.0
  Ti  Ti1565  1  0.95454545  0.31818182  0.69798303  1.0
  Ti  Ti1566  1  0.95454545  0.40909091  0.69798303  1.0
  Ti  Ti1567  1  0.95454545  0.50000000  0.69798303  1.0
  Ti  Ti1568  1  0.95454545  0.59090909  0.69798303  1.0
  Ti  Ti1569  1  0.95454545  0.68181818  0.69798303  1.0
  Ti  Ti1570  1  0.95454545  0.77272727  0.69798303  1.0
  Ti  Ti1571  1  0.95454545  0.86363636  0.69798303  1.0
  Ti  Ti1572  1  0.95454545  0.95454545  0.69798303  1.0
  Ti  Ti1573  1  0.00000000  0.09090909  0.76941160  1.0
  Ti  Ti1574  1  0.00000000  0.18181818  0.76941160  1.0
  Ti  Ti1575  1  0.00000000  0.27272727  0.76941160  1.0
  Ti  Ti1576  1  0.00000000  0.36363636  0.76941160  1.0
  Ti  Ti1577  1  0.00000000  0.45454545  0.76941160  1.0
  Ti  Ti1578  1  0.00000000  0.54545455  0.76941160  1.0
  Ti  Ti1579  1  0.00000000  0.63636364  0.76941160  1.0
  Ti  Ti1580  1  0.00000000  0.72727273  0.76941160  1.0
  Ti  Ti1581  1  0.00000000  0.81818182  0.76941160  1.0
  Ti  Ti1582  1  0.00000000  0.90909091  0.76941160  1.0
  Ti  Ti1583  1  0.00000000  0.00000000  0.76941160  1.0
  Ti  Ti1584  1  0.09090909  0.09090909  0.76941160  1.0
  Ti  Ti1585  1  0.09090909  0.18181818  0.76941160  1.0
  Ti  Ti1586  1  0.09090909  0.27272727  0.76941160  1.0
  Ti  Ti1587  1  0.09090909  0.36363636  0.76941160  1.0
  Ti  Ti1588  1  0.09090909  0.45454545  0.76941160  1.0
  Ti  Ti1589  1  0.09090909  0.54545455  0.76941160  1.0
  Ti  Ti1590  1  0.09090909  0.63636364  0.76941160  1.0
  Ti  Ti1591  1  0.09090909  0.72727273  0.76941160  1.0
  Ti  Ti1592  1  0.09090909  0.81818182  0.76941160  1.0
  Ti  Ti1593  1  0.09090909  0.90909091  0.76941160  1.0
  Ti  Ti1594  1  0.09090909  0.00000000  0.76941160  1.0
  Ti  Ti1595  1  0.18181818  0.09090909  0.76941160  1.0
  Ti  Ti1596  1  0.18181818  0.18181818  0.76941160  1.0
  Ti  Ti1597  1  0.18181818  0.27272727  0.76941160  1.0
  Ti  Ti1598  1  0.18181818  0.36363636  0.76941160  1.0
  Ti  Ti1599  1  0.18181818  0.45454545  0.76941160  1.0
  Ti  Ti1600  1  0.18181818  0.54545455  0.76941160  1.0
  Ti  Ti1601  1  0.18181818  0.63636364  0.76941160  1.0
  Ti  Ti1602  1  0.18181818  0.72727273  0.76941160  1.0
  Ti  Ti1603  1  0.18181818  0.81818182  0.76941160  1.0
  Ti  Ti1604  1  0.18181818  0.90909091  0.76941160  1.0
  Ti  Ti1605  1  0.18181818  0.00000000  0.76941160  1.0
  Ti  Ti1606  1  0.27272727  0.09090909  0.76941160  1.0
  Ti  Ti1607  1  0.27272727  0.18181818  0.76941160  1.0
  Ti  Ti1608  1  0.27272727  0.27272727  0.76941160  1.0
  Ti  Ti1609  1  0.27272727  0.36363636  0.76941160  1.0
  Ti  Ti1610  1  0.27272727  0.45454545  0.76941160  1.0
  Ti  Ti1611  1  0.27272727  0.54545455  0.76941160  1.0
  Ti  Ti1612  1  0.27272727  0.63636364  0.76941160  1.0
  Ti  Ti1613  1  0.27272727  0.72727273  0.76941160  1.0
  Ti  Ti1614  1  0.27272727  0.81818182  0.76941160  1.0
  Ti  Ti1615  1  0.27272727  0.90909091  0.76941160  1.0
  Ti  Ti1616  1  0.27272727  0.00000000  0.76941160  1.0
  Ti  Ti1617  1  0.36363636  0.09090909  0.76941160  1.0
  Ti  Ti1618  1  0.36363636  0.18181818  0.76941160  1.0
  Ti  Ti1619  1  0.36363636  0.27272727  0.76941160  1.0
  Ti  Ti1620  1  0.36363636  0.36363636  0.76941160  1.0
  Ti  Ti1621  1  0.36363636  0.45454545  0.76941160  1.0
  Ti  Ti1622  1  0.36363636  0.54545455  0.76941160  1.0
  Ti  Ti1623  1  0.36363636  0.63636364  0.76941160  1.0
  Ti  Ti1624  1  0.36363636  0.72727273  0.76941160  1.0
  Ti  Ti1625  1  0.36363636  0.81818182  0.76941160  1.0
  Ti  Ti1626  1  0.36363636  0.90909091  0.76941160  1.0
  Ti  Ti1627  1  0.36363636  0.00000000  0.76941160  1.0
  Ti  Ti1628  1  0.45454545  0.09090909  0.76941160  1.0
  Ti  Ti1629  1  0.45454545  0.18181818  0.76941160  1.0
  Ti  Ti1630  1  0.45454545  0.27272727  0.76941160  1.0
  Ti  Ti1631  1  0.45454545  0.36363636  0.76941160  1.0
  Ti  Ti1632  1  0.45454545  0.45454545  0.76941160  1.0
  Ti  Ti1633  1  0.45454545  0.54545455  0.76941160  1.0
  Ti  Ti1634  1  0.45454545  0.63636364  0.76941160  1.0
  Ti  Ti1635  1  0.45454545  0.72727273  0.76941160  1.0
  Ti  Ti1636  1  0.45454545  0.81818182  0.76941160  1.0
  Ti  Ti1637  1  0.45454545  0.90909091  0.76941160  1.0
  Ti  Ti1638  1  0.45454545  0.00000000  0.76941160  1.0
  Ti  Ti1639  1  0.54545455  0.09090909  0.76941160  1.0
  Ti  Ti1640  1  0.54545455  0.18181818  0.76941160  1.0
  Ti  Ti1641  1  0.54545455  0.27272727  0.76941160  1.0
  Ti  Ti1642  1  0.54545455  0.36363636  0.76941160  1.0
  Ti  Ti1643  1  0.54545455  0.45454545  0.76941160  1.0
  Ti  Ti1644  1  0.54545455  0.54545455  0.76941160  1.0
  Ti  Ti1645  1  0.54545455  0.63636364  0.76941160  1.0
  Ti  Ti1646  1  0.54545455  0.72727273  0.76941160  1.0
  Ti  Ti1647  1  0.54545455  0.81818182  0.76941160  1.0
  Ti  Ti1648  1  0.54545455  0.90909091  0.76941160  1.0
  Ti  Ti1649  1  0.54545455  0.00000000  0.76941160  1.0
  Ti  Ti1650  1  0.63636364  0.09090909  0.76941160  1.0
  Ti  Ti1651  1  0.63636364  0.18181818  0.76941160  1.0
  Ti  Ti1652  1  0.63636364  0.27272727  0.76941160  1.0
  Ti  Ti1653  1  0.63636364  0.36363636  0.76941160  1.0
  Ti  Ti1654  1  0.63636364  0.45454545  0.76941160  1.0
  Ti  Ti1655  1  0.63636364  0.54545455  0.76941160  1.0
  Ti  Ti1656  1  0.63636364  0.63636364  0.76941160  1.0
  Ti  Ti1657  1  0.63636364  0.72727273  0.76941160  1.0
  Ti  Ti1658  1  0.63636364  0.81818182  0.76941160  1.0
  Ti  Ti1659  1  0.63636364  0.90909091  0.76941160  1.0
  Ti  Ti1660  1  0.63636364  0.00000000  0.76941160  1.0
  Ti  Ti1661  1  0.72727273  0.09090909  0.76941160  1.0
  Ti  Ti1662  1  0.72727273  0.18181818  0.76941160  1.0
  Ti  Ti1663  1  0.72727273  0.27272727  0.76941160  1.0
  Ti  Ti1664  1  0.72727273  0.36363636  0.76941160  1.0
  Ti  Ti1665  1  0.72727273  0.45454545  0.76941160  1.0
  Ti  Ti1666  1  0.72727273  0.54545455  0.76941160  1.0
  Ti  Ti1667  1  0.72727273  0.63636364  0.76941160  1.0
  Ti  Ti1668  1  0.72727273  0.72727273  0.76941160  1.0
  Ti  Ti1669  1  0.72727273  0.81818182  0.76941160  1.0
  Ti  Ti1670  1  0.72727273  0.90909091  0.76941160  1.0
  Ti  Ti1671  1  0.72727273  0.00000000  0.76941160  1.0
  Ti  Ti1672  1  0.81818182  0.09090909  0.76941160  1.0
  Ti  Ti1673  1  0.81818182  0.18181818  0.76941160  1.0
  Ti  Ti1674  1  0.81818182  0.27272727  0.76941160  1.0
  Ti  Ti1675  1  0.81818182  0.36363636  0.76941160  1.0
  Ti  Ti1676  1  0.81818182  0.45454545  0.76941160  1.0
  Ti  Ti1677  1  0.81818182  0.54545455  0.76941160  1.0
  Ti  Ti1678  1  0.81818182  0.63636364  0.76941160  1.0
  Ti  Ti1679  1  0.81818182  0.72727273  0.76941160  1.0
  Ti  Ti1680  1  0.81818182  0.81818182  0.76941160  1.0
  Ti  Ti1681  1  0.81818182  0.90909091  0.76941160  1.0
  Ti  Ti1682  1  0.81818182  0.00000000  0.76941160  1.0
  Ti  Ti1683  1  0.90909091  0.09090909  0.76941160  1.0
  Ti  Ti1684  1  0.90909091  0.18181818  0.76941160  1.0
  Ti  Ti1685  1  0.90909091  0.27272727  0.76941160  1.0
  Ti  Ti1686  1  0.90909091  0.36363636  0.76941160  1.0
  Ti  Ti1687  1  0.90909091  0.45454545  0.76941160  1.0
  Ti  Ti1688  1  0.90909091  0.54545455  0.76941160  1.0
  Ti  Ti1689  1  0.90909091  0.63636364  0.76941160  1.0
  Ti  Ti1690  1  0.90909091  0.72727273  0.76941160  1.0
  Ti  Ti1691  1  0.90909091  0.81818182  0.76941160  1.0
  Ti  Ti1692  1  0.90909091  0.90909091  0.76941160  1.0
  Ti  Ti1693  1  0.90909091  0.00000000  0.76941160  1.0
  Ti  Ti1694  1  0.04545455  0.04545455  0.76941160  1.0
  Ti  Ti1695  1  0.04545455  0.13636364  0.76941160  1.0
  Ti  Ti1696  1  0.04545455  0.22727273  0.76941160  1.0
  Ti  Ti1697  1  0.04545455  0.31818182  0.76941160  1.0
  Ti  Ti1698  1  0.04545455  0.40909091  0.76941160  1.0
  Ti  Ti1699  1  0.04545455  0.50000000  0.76941160  1.0
  Ti  Ti1700  1  0.04545455  0.59090909  0.76941160  1.0
  Ti  Ti1701  1  0.04545455  0.68181818  0.76941160  1.0
  Ti  Ti1702  1  0.04545455  0.77272727  0.76941160  1.0
  Ti  Ti1703  1  0.04545455  0.86363636  0.76941160  1.0
  Ti  Ti1704  1  0.04545455  0.95454545  0.76941160  1.0
  Ti  Ti1705  1  0.13636364  0.04545455  0.76941160  1.0
  Ti  Ti1706  1  0.13636364  0.13636364  0.76941160  1.0
  Ti  Ti1707  1  0.13636364  0.22727273  0.76941160  1.0
  Ti  Ti1708  1  0.13636364  0.31818182  0.76941160  1.0
  Ti  Ti1709  1  0.13636364  0.40909091  0.76941160  1.0
  Ti  Ti1710  1  0.13636364  0.50000000  0.76941160  1.0
  Ti  Ti1711  1  0.13636364  0.59090909  0.76941160  1.0
  Ti  Ti1712  1  0.13636364  0.68181818  0.76941160  1.0
  Ti  Ti1713  1  0.13636364  0.77272727  0.76941160  1.0
  Ti  Ti1714  1  0.13636364  0.86363636  0.76941160  1.0
  Ti  Ti1715  1  0.13636364  0.95454545  0.76941160  1.0
  Ti  Ti1716  1  0.22727273  0.04545455  0.76941160  1.0
  Ti  Ti1717  1  0.22727273  0.13636364  0.76941160  1.0
  Ti  Ti1718  1  0.22727273  0.22727273  0.76941160  1.0
  Ti  Ti1719  1  0.22727273  0.31818182  0.76941160  1.0
  Ti  Ti1720  1  0.22727273  0.40909091  0.76941160  1.0
  Ti  Ti1721  1  0.22727273  0.50000000  0.76941160  1.0
  Ti  Ti1722  1  0.22727273  0.59090909  0.76941160  1.0
  Ti  Ti1723  1  0.22727273  0.68181818  0.76941160  1.0
  Ti  Ti1724  1  0.22727273  0.77272727  0.76941160  1.0
  Ti  Ti1725  1  0.22727273  0.86363636  0.76941160  1.0
  Ti  Ti1726  1  0.22727273  0.95454545  0.76941160  1.0
  Ti  Ti1727  1  0.31818182  0.04545455  0.76941160  1.0
  Ti  Ti1728  1  0.31818182  0.13636364  0.76941160  1.0
  Ti  Ti1729  1  0.31818182  0.22727273  0.76941160  1.0
  Ti  Ti1730  1  0.31818182  0.31818182  0.76941160  1.0
  Ti  Ti1731  1  0.31818182  0.40909091  0.76941160  1.0
  Ti  Ti1732  1  0.31818182  0.50000000  0.76941160  1.0
  Ti  Ti1733  1  0.31818182  0.59090909  0.76941160  1.0
  Ti  Ti1734  1  0.31818182  0.68181818  0.76941160  1.0
  Ti  Ti1735  1  0.31818182  0.77272727  0.76941160  1.0
  Ti  Ti1736  1  0.31818182  0.86363636  0.76941160  1.0
  Ti  Ti1737  1  0.31818182  0.95454545  0.76941160  1.0
  Ti  Ti1738  1  0.40909091  0.04545455  0.76941160  1.0
  Ti  Ti1739  1  0.40909091  0.13636364  0.76941160  1.0
  Ti  Ti1740  1  0.40909091  0.22727273  0.76941160  1.0
  Ti  Ti1741  1  0.40909091  0.31818182  0.76941160  1.0
  Ti  Ti1742  1  0.40909091  0.40909091  0.76941160  1.0
  Ti  Ti1743  1  0.40909091  0.50000000  0.76941160  1.0
  Ti  Ti1744  1  0.40909091  0.59090909  0.76941160  1.0
  Ti  Ti1745  1  0.40909091  0.68181818  0.76941160  1.0
  Ti  Ti1746  1  0.40909091  0.77272727  0.76941160  1.0
  Ti  Ti1747  1  0.40909091  0.86363636  0.76941160  1.0
  Ti  Ti1748  1  0.40909091  0.95454545  0.76941160  1.0
  Ti  Ti1749  1  0.50000000  0.04545455  0.76941160  1.0
  Ti  Ti1750  1  0.50000000  0.13636364  0.76941160  1.0
  Ti  Ti1751  1  0.50000000  0.22727273  0.76941160  1.0
  Ti  Ti1752  1  0.50000000  0.31818182  0.76941160  1.0
  Ti  Ti1753  1  0.50000000  0.40909091  0.76941160  1.0
  Ti  Ti1754  1  0.50000000  0.50000000  0.76941160  1.0
  Ti  Ti1755  1  0.50000000  0.59090909  0.76941160  1.0
  Ti  Ti1756  1  0.50000000  0.68181818  0.76941160  1.0
  Ti  Ti1757  1  0.50000000  0.77272727  0.76941160  1.0
  Ti  Ti1758  1  0.50000000  0.86363636  0.76941160  1.0
  Ti  Ti1759  1  0.50000000  0.95454545  0.76941160  1.0
  Ti  Ti1760  1  0.59090909  0.04545455  0.76941160  1.0
  Ti  Ti1761  1  0.59090909  0.13636364  0.76941160  1.0
  Ti  Ti1762  1  0.59090909  0.22727273  0.76941160  1.0
  Ti  Ti1763  1  0.59090909  0.31818182  0.76941160  1.0
  Ti  Ti1764  1  0.59090909  0.40909091  0.76941160  1.0
  Ti  Ti1765  1  0.59090909  0.50000000  0.76941160  1.0
  Ti  Ti1766  1  0.59090909  0.59090909  0.76941160  1.0
  Ti  Ti1767  1  0.59090909  0.68181818  0.76941160  1.0
  Ti  Ti1768  1  0.59090909  0.77272727  0.76941160  1.0
  Ti  Ti1769  1  0.59090909  0.86363636  0.76941160  1.0
  Ti  Ti1770  1  0.59090909  0.95454545  0.76941160  1.0
  Ti  Ti1771  1  0.68181818  0.04545455  0.76941160  1.0
  Ti  Ti1772  1  0.68181818  0.13636364  0.76941160  1.0
  Ti  Ti1773  1  0.68181818  0.22727273  0.76941160  1.0
  Ti  Ti1774  1  0.68181818  0.31818182  0.76941160  1.0
  Ti  Ti1775  1  0.68181818  0.40909091  0.76941160  1.0
  Ti  Ti1776  1  0.68181818  0.50000000  0.76941160  1.0
  Ti  Ti1777  1  0.68181818  0.59090909  0.76941160  1.0
  Ti  Ti1778  1  0.68181818  0.68181818  0.76941160  1.0
  Ti  Ti1779  1  0.68181818  0.77272727  0.76941160  1.0
  Ti  Ti1780  1  0.68181818  0.86363636  0.76941160  1.0
  Ti  Ti1781  1  0.68181818  0.95454545  0.76941160  1.0
  Ti  Ti1782  1  0.77272727  0.04545455  0.76941160  1.0
  Ti  Ti1783  1  0.77272727  0.13636364  0.76941160  1.0
  Ti  Ti1784  1  0.77272727  0.22727273  0.76941160  1.0
  Ti  Ti1785  1  0.77272727  0.31818182  0.76941160  1.0
  Ti  Ti1786  1  0.77272727  0.40909091  0.76941160  1.0
  Ti  Ti1787  1  0.77272727  0.50000000  0.76941160  1.0
  Ti  Ti1788  1  0.77272727  0.59090909  0.76941160  1.0
  Ti  Ti1789  1  0.77272727  0.68181818  0.76941160  1.0
  Ti  Ti1790  1  0.77272727  0.77272727  0.76941160  1.0
  Ti  Ti1791  1  0.77272727  0.86363636  0.76941160  1.0
  Ti  Ti1792  1  0.77272727  0.95454545  0.76941160  1.0
  Ti  Ti1793  1  0.86363636  0.04545455  0.76941160  1.0
  Ti  Ti1794  1  0.86363636  0.13636364  0.76941160  1.0
  Ti  Ti1795  1  0.86363636  0.22727273  0.76941160  1.0
  Ti  Ti1796  1  0.86363636  0.31818182  0.76941160  1.0
  Ti  Ti1797  1  0.86363636  0.40909091  0.76941160  1.0
  Ti  Ti1798  1  0.86363636  0.50000000  0.76941160  1.0
  Ti  Ti1799  1  0.86363636  0.59090909  0.76941160  1.0
  Ti  Ti1800  1  0.86363636  0.68181818  0.76941160  1.0
  Ti  Ti1801  1  0.86363636  0.77272727  0.76941160  1.0
  Ti  Ti1802  1  0.86363636  0.86363636  0.76941160  1.0
  Ti  Ti1803  1  0.86363636  0.95454545  0.76941160  1.0
  Ti  Ti1804  1  0.95454545  0.04545455  0.76941160  1.0
  Ti  Ti1805  1  0.95454545  0.13636364  0.76941160  1.0
  Ti  Ti1806  1  0.95454545  0.22727273  0.76941160  1.0
  Ti  Ti1807  1  0.95454545  0.31818182  0.76941160  1.0
  Ti  Ti1808  1  0.95454545  0.40909091  0.76941160  1.0
  Ti  Ti1809  1  0.95454545  0.50000000  0.76941160  1.0
  Ti  Ti1810  1  0.95454545  0.59090909  0.76941160  1.0
  Ti  Ti1811  1  0.95454545  0.68181818  0.76941160  1.0
  Ti  Ti1812  1  0.95454545  0.77272727  0.76941160  1.0
  Ti  Ti1813  1  0.95454545  0.86363636  0.76941160  1.0
  Ti  Ti1814  1  0.95454545  0.95454545  0.76941160  1.0
  Ti  Ti1815  1  0.00000000  0.09090909  0.69798303  1.0
  Ti  Ti1816  1  0.00000000  0.18181818  0.69798303  1.0
  Ti  Ti1817  1  0.00000000  0.27272727  0.69798303  1.0
  Ti  Ti1818  1  0.00000000  0.36363636  0.69798303  1.0
  Ti  Ti1819  1  0.00000000  0.45454545  0.69798303  1.0
  Ti  Ti1820  1  0.00000000  0.54545455  0.69798303  1.0
  Ti  Ti1821  1  0.00000000  0.63636364  0.69798303  1.0
  Ti  Ti1822  1  0.00000000  0.72727273  0.69798303  1.0
  Ti  Ti1823  1  0.00000000  0.81818182  0.69798303  1.0
  Ti  Ti1824  1  0.00000000  0.90909091  0.69798303  1.0
  Ti  Ti1825  1  0.00000000  0.00000000  0.69798303  1.0
  Ti  Ti1826  1  0.09090909  0.09090909  0.69798303  1.0
  Ti  Ti1827  1  0.09090909  0.18181818  0.69798303  1.0
  Ti  Ti1828  1  0.09090909  0.27272727  0.69798303  1.0
  Ti  Ti1829  1  0.09090909  0.36363636  0.69798303  1.0
  Ti  Ti1830  1  0.09090909  0.45454545  0.69798303  1.0
  Ti  Ti1831  1  0.09090909  0.54545455  0.69798303  1.0
  Ti  Ti1832  1  0.09090909  0.63636364  0.69798303  1.0
  Ti  Ti1833  1  0.09090909  0.72727273  0.69798303  1.0
  Ti  Ti1834  1  0.09090909  0.81818182  0.69798303  1.0
  Ti  Ti1835  1  0.09090909  0.90909091  0.69798303  1.0
  Ti  Ti1836  1  0.09090909  0.00000000  0.69798303  1.0
  Ti  Ti1837  1  0.18181818  0.09090909  0.69798303  1.0
  Ti  Ti1838  1  0.18181818  0.18181818  0.69798303  1.0
  Ti  Ti1839  1  0.18181818  0.27272727  0.69798303  1.0
  Ti  Ti1840  1  0.18181818  0.36363636  0.69798303  1.0
  Ti  Ti1841  1  0.18181818  0.45454545  0.69798303  1.0
  Ti  Ti1842  1  0.18181818  0.54545455  0.69798303  1.0
  Ti  Ti1843  1  0.18181818  0.63636364  0.69798303  1.0
  Ti  Ti1844  1  0.18181818  0.72727273  0.69798303  1.0
  Ti  Ti1845  1  0.18181818  0.81818182  0.69798303  1.0
  Ti  Ti1846  1  0.18181818  0.90909091  0.69798303  1.0
  Ti  Ti1847  1  0.18181818  0.00000000  0.69798303  1.0
  Ti  Ti1848  1  0.27272727  0.09090909  0.69798303  1.0
  Ti  Ti1849  1  0.27272727  0.18181818  0.69798303  1.0
  Ti  Ti1850  1  0.27272727  0.27272727  0.69798303  1.0
  Ti  Ti1851  1  0.27272727  0.36363636  0.69798303  1.0
  Ti  Ti1852  1  0.27272727  0.45454545  0.69798303  1.0
  Ti  Ti1853  1  0.27272727  0.54545455  0.69798303  1.0
  Ti  Ti1854  1  0.27272727  0.63636364  0.69798303  1.0
  Ti  Ti1855  1  0.27272727  0.72727273  0.69798303  1.0
  Ti  Ti1856  1  0.27272727  0.81818182  0.69798303  1.0
  Ti  Ti1857  1  0.27272727  0.90909091  0.69798303  1.0
  Ti  Ti1858  1  0.27272727  0.00000000  0.69798303  1.0
  Ti  Ti1859  1  0.36363636  0.09090909  0.69798303  1.0
  Ti  Ti1860  1  0.36363636  0.18181818  0.69798303  1.0
  Ti  Ti1861  1  0.36363636  0.27272727  0.69798303  1.0
  Ti  Ti1862  1  0.36363636  0.36363636  0.69798303  1.0
  Ti  Ti1863  1  0.36363636  0.45454545  0.69798303  1.0
  Ti  Ti1864  1  0.36363636  0.54545455  0.69798303  1.0
  Ti  Ti1865  1  0.36363636  0.63636364  0.69798303  1.0
  Ti  Ti1866  1  0.36363636  0.72727273  0.69798303  1.0
  Ti  Ti1867  1  0.36363636  0.81818182  0.69798303  1.0
  Ti  Ti1868  1  0.36363636  0.90909091  0.69798303  1.0
  Ti  Ti1869  1  0.36363636  0.00000000  0.69798303  1.0
  Ti  Ti1870  1  0.45454545  0.09090909  0.69798303  1.0
  Ti  Ti1871  1  0.45454545  0.18181818  0.69798303  1.0
  Ti  Ti1872  1  0.45454545  0.27272727  0.69798303  1.0
  Ti  Ti1873  1  0.45454545  0.36363636  0.69798303  1.0
  Ti  Ti1874  1  0.45454545  0.45454545  0.69798303  1.0
  Ti  Ti1875  1  0.45454545  0.54545455  0.69798303  1.0
  Ti  Ti1876  1  0.45454545  0.63636364  0.69798303  1.0
  Ti  Ti1877  1  0.45454545  0.72727273  0.69798303  1.0
  Ti  Ti1878  1  0.45454545  0.81818182  0.69798303  1.0
  Ti  Ti1879  1  0.45454545  0.90909091  0.69798303  1.0
  Ti  Ti1880  1  0.45454545  0.00000000  0.69798303  1.0
  Ti  Ti1881  1  0.54545455  0.09090909  0.69798303  1.0
  Ti  Ti1882  1  0.54545455  0.18181818  0.69798303  1.0
  Ti  Ti1883  1  0.54545455  0.27272727  0.69798303  1.0
  Ti  Ti1884  1  0.54545455  0.36363636  0.69798303  1.0
  Ti  Ti1885  1  0.54545455  0.45454545  0.69798303  1.0
  Ti  Ti1886  1  0.54545455  0.54545455  0.69798303  1.0
  Ti  Ti1887  1  0.54545455  0.63636364  0.69798303  1.0
  Ti  Ti1888  1  0.54545455  0.72727273  0.69798303  1.0
  Ti  Ti1889  1  0.54545455  0.81818182  0.69798303  1.0
  Ti  Ti1890  1  0.54545455  0.90909091  0.69798303  1.0
  Ti  Ti1891  1  0.54545455  0.00000000  0.69798303  1.0
  Ti  Ti1892  1  0.63636364  0.09090909  0.69798303  1.0
  Ti  Ti1893  1  0.63636364  0.18181818  0.69798303  1.0
  Ti  Ti1894  1  0.63636364  0.27272727  0.69798303  1.0
  Ti  Ti1895  1  0.63636364  0.36363636  0.69798303  1.0
  Ti  Ti1896  1  0.63636364  0.45454545  0.69798303  1.0
  Ti  Ti1897  1  0.63636364  0.54545455  0.69798303  1.0
  Ti  Ti1898  1  0.63636364  0.63636364  0.69798303  1.0
  Ti  Ti1899  1  0.63636364  0.72727273  0.69798303  1.0
  Ti  Ti1900  1  0.63636364  0.81818182  0.69798303  1.0
  Ti  Ti1901  1  0.63636364  0.90909091  0.69798303  1.0
  Ti  Ti1902  1  0.63636364  0.00000000  0.69798303  1.0
  Ti  Ti1903  1  0.72727273  0.09090909  0.69798303  1.0
  Ti  Ti1904  1  0.72727273  0.18181818  0.69798303  1.0
  Ti  Ti1905  1  0.72727273  0.27272727  0.69798303  1.0
  Ti  Ti1906  1  0.72727273  0.36363636  0.69798303  1.0
  Ti  Ti1907  1  0.72727273  0.45454545  0.69798303  1.0
  Ti  Ti1908  1  0.72727273  0.54545455  0.69798303  1.0
  Ti  Ti1909  1  0.72727273  0.63636364  0.69798303  1.0
  Ti  Ti1910  1  0.72727273  0.72727273  0.69798303  1.0
  Ti  Ti1911  1  0.72727273  0.81818182  0.69798303  1.0
  Ti  Ti1912  1  0.72727273  0.90909091  0.69798303  1.0
  Ti  Ti1913  1  0.72727273  0.00000000  0.69798303  1.0
  Ti  Ti1914  1  0.81818182  0.09090909  0.69798303  1.0
  Ti  Ti1915  1  0.81818182  0.18181818  0.69798303  1.0
  Ti  Ti1916  1  0.81818182  0.27272727  0.69798303  1.0
  Ti  Ti1917  1  0.81818182  0.36363636  0.69798303  1.0
  Ti  Ti1918  1  0.81818182  0.45454545  0.69798303  1.0
  Ti  Ti1919  1  0.81818182  0.54545455  0.69798303  1.0
  Ti  Ti1920  1  0.81818182  0.63636364  0.69798303  1.0
  Ti  Ti1921  1  0.81818182  0.72727273  0.69798303  1.0
  Ti  Ti1922  1  0.81818182  0.81818182  0.69798303  1.0
  Ti  Ti1923  1  0.81818182  0.90909091  0.69798303  1.0
  Ti  Ti1924  1  0.81818182  0.00000000  0.69798303  1.0
  Ti  Ti1925  1  0.90909091  0.09090909  0.69798303  1.0
  Ti  Ti1926  1  0.90909091  0.18181818  0.69798303  1.0
  Ti  Ti1927  1  0.90909091  0.27272727  0.69798303  1.0
  Ti  Ti1928  1  0.90909091  0.36363636  0.69798303  1.0
  Ti  Ti1929  1  0.90909091  0.45454545  0.69798303  1.0
  Ti  Ti1930  1  0.90909091  0.54545455  0.69798303  1.0
  Ti  Ti1931  1  0.90909091  0.63636364  0.69798303  1.0
  Ti  Ti1932  1  0.90909091  0.72727273  0.69798303  1.0
  Ti  Ti1933  1  0.90909091  0.81818182  0.69798303  1.0
  Ti  Ti1934  1  0.90909091  0.90909091  0.69798303  1.0
  Ti  Ti1935  1  0.90909091  0.00000000  0.69798303  1.0
  F  F1936  1  0.02388784  0.06966900  0.33886776  1.0
  F  F1937  1  0.02388784  0.16057809  0.33886776  1.0
  F  F1938  1  0.02388784  0.25148719  0.33886776  1.0
  F  F1939  1  0.02388784  0.34239628  0.33886776  1.0
  F  F1940  1  0.02388784  0.43330537  0.33886776  1.0
  F  F1941  1  0.02388784  0.52421446  0.33886776  1.0
  F  F1942  1  0.02388784  0.61512355  0.33886776  1.0
  F  F1943  1  0.02388784  0.70603264  0.33886776  1.0
  F  F1944  1  0.02388784  0.79694173  0.33886776  1.0
  F  F1945  1  0.02388784  0.88785082  0.33886776  1.0
  F  F1946  1  0.02388784  0.97875991  0.33886776  1.0
  F  F1947  1  0.11479693  0.06966900  0.33886776  1.0
  F  F1948  1  0.11479693  0.16057809  0.33886776  1.0
  F  F1949  1  0.11479693  0.25148719  0.33886776  1.0
  F  F1950  1  0.11479693  0.34239628  0.33886776  1.0
  F  F1951  1  0.11479693  0.43330537  0.33886776  1.0
  F  F1952  1  0.11479693  0.52421446  0.33886776  1.0
  F  F1953  1  0.11479693  0.61512355  0.33886776  1.0
  F  F1954  1  0.11479693  0.70603264  0.33886776  1.0
  F  F1955  1  0.11479693  0.79694173  0.33886776  1.0
  F  F1956  1  0.11479693  0.88785082  0.33886776  1.0
  F  F1957  1  0.11479693  0.97875991  0.33886776  1.0
  F  F1958  1  0.20570602  0.06966900  0.33886776  1.0
  F  F1959  1  0.20570602  0.16057809  0.33886776  1.0
  F  F1960  1  0.20570602  0.25148719  0.33886776  1.0
  F  F1961  1  0.20570602  0.34239628  0.33886776  1.0
  F  F1962  1  0.20570602  0.43330537  0.33886776  1.0
  F  F1963  1  0.20570602  0.52421446  0.33886776  1.0
  F  F1964  1  0.20570602  0.61512355  0.33886776  1.0
  F  F1965  1  0.20570602  0.70603264  0.33886776  1.0
  F  F1966  1  0.20570602  0.79694173  0.33886776  1.0
  F  F1967  1  0.20570602  0.88785082  0.33886776  1.0
  F  F1968  1  0.20570602  0.97875991  0.33886776  1.0
  F  F1969  1  0.29661511  0.06966900  0.33886776  1.0
  F  F1970  1  0.29661511  0.16057809  0.33886776  1.0
  F  F1971  1  0.29661511  0.25148719  0.33886776  1.0
  F  F1972  1  0.29661511  0.34239628  0.33886776  1.0
  F  F1973  1  0.29661511  0.43330537  0.33886776  1.0
  F  F1974  1  0.29661511  0.52421446  0.33886776  1.0
  F  F1975  1  0.29661511  0.61512355  0.33886776  1.0
  F  F1976  1  0.29661511  0.70603264  0.33886776  1.0
  F  F1977  1  0.29661511  0.79694173  0.33886776  1.0
  F  F1978  1  0.29661511  0.88785082  0.33886776  1.0
  F  F1979  1  0.29661511  0.97875991  0.33886776  1.0
  F  F1980  1  0.38752420  0.06966900  0.33886776  1.0
  F  F1981  1  0.38752420  0.16057809  0.33886776  1.0
  F  F1982  1  0.38752420  0.25148719  0.33886776  1.0
  F  F1983  1  0.38752420  0.34239628  0.33886776  1.0
  F  F1984  1  0.38752420  0.43330537  0.33886776  1.0
  F  F1985  1  0.38752420  0.52421446  0.33886776  1.0
  F  F1986  1  0.38752420  0.61512355  0.33886776  1.0
  F  F1987  1  0.38752420  0.70603264  0.33886776  1.0
  F  F1988  1  0.38752420  0.79694173  0.33886776  1.0
  F  F1989  1  0.38752420  0.88785082  0.33886776  1.0
  F  F1990  1  0.38752420  0.97875991  0.33886776  1.0
  F  F1991  1  0.47843329  0.06966900  0.33886776  1.0
  F  F1992  1  0.47843329  0.16057809  0.33886776  1.0
  F  F1993  1  0.47843329  0.25148719  0.33886776  1.0
  F  F1994  1  0.47843329  0.34239628  0.33886776  1.0
  F  F1995  1  0.47843329  0.43330537  0.33886776  1.0
  F  F1996  1  0.47843329  0.52421446  0.33886776  1.0
  F  F1997  1  0.47843329  0.61512355  0.33886776  1.0
  F  F1998  1  0.47843329  0.70603264  0.33886776  1.0
  F  F1999  1  0.47843329  0.79694173  0.33886776  1.0
  F  F2000  1  0.47843329  0.88785082  0.33886776  1.0
  F  F2001  1  0.47843329  0.97875991  0.33886776  1.0
  F  F2002  1  0.56934238  0.06966900  0.33886776  1.0
  F  F2003  1  0.56934238  0.16057809  0.33886776  1.0
  F  F2004  1  0.56934238  0.25148719  0.33886776  1.0
  F  F2005  1  0.56934238  0.34239628  0.33886776  1.0
  F  F2006  1  0.56934238  0.43330537  0.33886776  1.0
  F  F2007  1  0.56934238  0.52421446  0.33886776  1.0
  F  F2008  1  0.56934238  0.61512355  0.33886776  1.0
  F  F2009  1  0.56934238  0.70603264  0.33886776  1.0
  F  F2010  1  0.56934238  0.79694173  0.33886776  1.0
  F  F2011  1  0.56934238  0.88785082  0.33886776  1.0
  F  F2012  1  0.56934238  0.97875991  0.33886776  1.0
  F  F2013  1  0.66025148  0.06966900  0.33886776  1.0
  F  F2014  1  0.66025147  0.16057809  0.33886776  1.0
  F  F2015  1  0.66025147  0.25148719  0.33886776  1.0
  F  F2016  1  0.66025148  0.34239628  0.33886776  1.0
  F  F2017  1  0.66025148  0.43330537  0.33886776  1.0
  F  F2018  1  0.66025148  0.52421446  0.33886776  1.0
  F  F2019  1  0.66025147  0.61512355  0.33886776  1.0
  F  F2020  1  0.66025148  0.70603264  0.33886776  1.0
  F  F2021  1  0.66025147  0.79694173  0.33886776  1.0
  F  F2022  1  0.66025148  0.88785082  0.33886776  1.0
  F  F2023  1  0.66025148  0.97875991  0.33886776  1.0
  F  F2024  1  0.75116057  0.06966900  0.33886776  1.0
  F  F2025  1  0.75116057  0.16057809  0.33886776  1.0
  F  F2026  1  0.75116057  0.25148719  0.33886776  1.0
  F  F2027  1  0.75116057  0.34239628  0.33886776  1.0
  F  F2028  1  0.75116057  0.43330537  0.33886776  1.0
  F  F2029  1  0.75116057  0.52421446  0.33886776  1.0
  F  F2030  1  0.75116057  0.61512355  0.33886776  1.0
  F  F2031  1  0.75116057  0.70603264  0.33886776  1.0
  F  F2032  1  0.75116057  0.79694173  0.33886776  1.0
  F  F2033  1  0.75116057  0.88785082  0.33886776  1.0
  F  F2034  1  0.75116057  0.97875991  0.33886776  1.0
  F  F2035  1  0.84206966  0.06966900  0.33886776  1.0
  F  F2036  1  0.84206966  0.16057809  0.33886776  1.0
  F  F2037  1  0.84206966  0.25148719  0.33886776  1.0
  F  F2038  1  0.84206966  0.34239628  0.33886776  1.0
  F  F2039  1  0.84206966  0.43330537  0.33886776  1.0
  F  F2040  1  0.84206966  0.52421446  0.33886776  1.0
  F  F2041  1  0.84206966  0.61512355  0.33886776  1.0
  F  F2042  1  0.84206966  0.70603264  0.33886776  1.0
  F  F2043  1  0.84206966  0.79694173  0.33886776  1.0
  F  F2044  1  0.84206966  0.88785082  0.33886776  1.0
  F  F2045  1  0.84206966  0.97875991  0.33886776  1.0
  F  F2046  1  0.93297875  0.06966900  0.33886776  1.0
  F  F2047  1  0.93297875  0.16057809  0.33886776  1.0
  F  F2048  1  0.93297875  0.25148719  0.33886776  1.0
  F  F2049  1  0.93297875  0.34239628  0.33886776  1.0
  F  F2050  1  0.93297875  0.43330537  0.33886776  1.0
  F  F2051  1  0.93297875  0.52421446  0.33886776  1.0
  F  F2052  1  0.93297875  0.61512355  0.33886776  1.0
  F  F2053  1  0.93297875  0.70603264  0.33886776  1.0
  F  F2054  1  0.93297875  0.79694173  0.33886776  1.0
  F  F2055  1  0.93297875  0.88785082  0.33886776  1.0
  F  F2056  1  0.93297875  0.97875991  0.33886776  1.0
  F  F2057  1  0.06914445  0.06639475  0.33871255  1.0
  F  F2058  1  0.06914445  0.15730384  0.33871255  1.0
  F  F2059  1  0.06914445  0.24821293  0.33871255  1.0
  F  F2060  1  0.06914445  0.33912202  0.33871255  1.0
  F  F2061  1  0.06914445  0.43003112  0.33871255  1.0
  F  F2062  1  0.06914445  0.52094021  0.33871255  1.0
  F  F2063  1  0.06914445  0.61184930  0.33871255  1.0
  F  F2064  1  0.06914445  0.70275839  0.33871255  1.0
  F  F2065  1  0.06914445  0.79366748  0.33871255  1.0
  F  F2066  1  0.06914445  0.88457657  0.33871255  1.0
  F  F2067  1  0.06914445  0.97548566  0.33871255  1.0
  F  F2068  1  0.16005354  0.06639475  0.33871255  1.0
  F  F2069  1  0.16005354  0.15730384  0.33871255  1.0
  F  F2070  1  0.16005354  0.24821293  0.33871255  1.0
  F  F2071  1  0.16005354  0.33912202  0.33871255  1.0
  F  F2072  1  0.16005354  0.43003112  0.33871255  1.0
  F  F2073  1  0.16005354  0.52094021  0.33871255  1.0
  F  F2074  1  0.16005354  0.61184930  0.33871255  1.0
  F  F2075  1  0.16005354  0.70275839  0.33871255  1.0
  F  F2076  1  0.16005354  0.79366748  0.33871255  1.0
  F  F2077  1  0.16005354  0.88457657  0.33871255  1.0
  F  F2078  1  0.16005354  0.97548566  0.33871255  1.0
  F  F2079  1  0.25096263  0.06639475  0.33871255  1.0
  F  F2080  1  0.25096263  0.15730384  0.33871255  1.0
  F  F2081  1  0.25096263  0.24821293  0.33871255  1.0
  F  F2082  1  0.25096263  0.33912202  0.33871255  1.0
  F  F2083  1  0.25096263  0.43003112  0.33871255  1.0
  F  F2084  1  0.25096263  0.52094021  0.33871255  1.0
  F  F2085  1  0.25096263  0.61184930  0.33871255  1.0
  F  F2086  1  0.25096263  0.70275839  0.33871255  1.0
  F  F2087  1  0.25096263  0.79366748  0.33871255  1.0
  F  F2088  1  0.25096263  0.88457657  0.33871255  1.0
  F  F2089  1  0.25096263  0.97548566  0.33871255  1.0
  F  F2090  1  0.34187172  0.06639475  0.33871255  1.0
  F  F2091  1  0.34187172  0.15730384  0.33871255  1.0
  F  F2092  1  0.34187172  0.24821293  0.33871255  1.0
  F  F2093  1  0.34187172  0.33912202  0.33871255  1.0
  F  F2094  1  0.34187172  0.43003112  0.33871255  1.0
  F  F2095  1  0.34187172  0.52094021  0.33871255  1.0
  F  F2096  1  0.34187172  0.61184930  0.33871255  1.0
  F  F2097  1  0.34187172  0.70275839  0.33871255  1.0
  F  F2098  1  0.34187172  0.79366748  0.33871255  1.0
  F  F2099  1  0.34187172  0.88457657  0.33871255  1.0
  F  F2100  1  0.34187172  0.97548566  0.33871255  1.0
  F  F2101  1  0.43278081  0.06639475  0.33871255  1.0
  F  F2102  1  0.43278081  0.15730384  0.33871255  1.0
  F  F2103  1  0.43278081  0.24821293  0.33871255  1.0
  F  F2104  1  0.43278081  0.33912202  0.33871255  1.0
  F  F2105  1  0.43278081  0.43003112  0.33871255  1.0
  F  F2106  1  0.43278081  0.52094021  0.33871255  1.0
  F  F2107  1  0.43278081  0.61184930  0.33871255  1.0
  F  F2108  1  0.43278081  0.70275839  0.33871255  1.0
  F  F2109  1  0.43278081  0.79366748  0.33871255  1.0
  F  F2110  1  0.43278081  0.88457657  0.33871255  1.0
  F  F2111  1  0.43278081  0.97548566  0.33871255  1.0
  F  F2112  1  0.52368990  0.06639475  0.33871255  1.0
  F  F2113  1  0.52368990  0.15730384  0.33871255  1.0
  F  F2114  1  0.52368990  0.24821293  0.33871255  1.0
  F  F2115  1  0.52368990  0.33912202  0.33871255  1.0
  F  F2116  1  0.52368990  0.43003112  0.33871255  1.0
  F  F2117  1  0.52368990  0.52094021  0.33871255  1.0
  F  F2118  1  0.52368990  0.61184930  0.33871255  1.0
  F  F2119  1  0.52368990  0.70275839  0.33871255  1.0
  F  F2120  1  0.52368990  0.79366748  0.33871255  1.0
  F  F2121  1  0.52368990  0.88457657  0.33871255  1.0
  F  F2122  1  0.52368990  0.97548566  0.33871255  1.0
  F  F2123  1  0.61459899  0.06639475  0.33871255  1.0
  F  F2124  1  0.61459899  0.15730384  0.33871255  1.0
  F  F2125  1  0.61459899  0.24821293  0.33871255  1.0
  F  F2126  1  0.61459899  0.33912202  0.33871255  1.0
  F  F2127  1  0.61459899  0.43003112  0.33871255  1.0
  F  F2128  1  0.61459899  0.52094021  0.33871255  1.0
  F  F2129  1  0.61459899  0.61184930  0.33871255  1.0
  F  F2130  1  0.61459899  0.70275839  0.33871255  1.0
  F  F2131  1  0.61459899  0.79366748  0.33871255  1.0
  F  F2132  1  0.61459899  0.88457657  0.33871255  1.0
  F  F2133  1  0.61459899  0.97548566  0.33871255  1.0
  F  F2134  1  0.70550809  0.06639475  0.33871255  1.0
  F  F2135  1  0.70550809  0.15730384  0.33871255  1.0
  F  F2136  1  0.70550808  0.24821293  0.33871255  1.0
  F  F2137  1  0.70550809  0.33912202  0.33871255  1.0
  F  F2138  1  0.70550809  0.43003112  0.33871255  1.0
  F  F2139  1  0.70550809  0.52094021  0.33871255  1.0
  F  F2140  1  0.70550809  0.61184930  0.33871255  1.0
  F  F2141  1  0.70550809  0.70275839  0.33871255  1.0
  F  F2142  1  0.70550809  0.79366748  0.33871255  1.0
  F  F2143  1  0.70550809  0.88457657  0.33871255  1.0
  F  F2144  1  0.70550809  0.97548566  0.33871255  1.0
  F  F2145  1  0.79641718  0.06639475  0.33871255  1.0
  F  F2146  1  0.79641718  0.15730384  0.33871255  1.0
  F  F2147  1  0.79641718  0.24821293  0.33871255  1.0
  F  F2148  1  0.79641718  0.33912202  0.33871255  1.0
  F  F2149  1  0.79641718  0.43003112  0.33871255  1.0
  F  F2150  1  0.79641718  0.52094021  0.33871255  1.0
  F  F2151  1  0.79641718  0.61184930  0.33871255  1.0
  F  F2152  1  0.79641718  0.70275839  0.33871255  1.0
  F  F2153  1  0.79641718  0.79366748  0.33871255  1.0
  F  F2154  1  0.79641718  0.88457657  0.33871255  1.0
  F  F2155  1  0.79641718  0.97548566  0.33871255  1.0
  F  F2156  1  0.88732627  0.06639475  0.33871255  1.0
  F  F2157  1  0.88732627  0.15730384  0.33871255  1.0
  F  F2158  1  0.88732627  0.24821293  0.33871255  1.0
  F  F2159  1  0.88732627  0.33912202  0.33871255  1.0
  F  F2160  1  0.88732627  0.43003112  0.33871255  1.0
  F  F2161  1  0.88732627  0.52094021  0.33871255  1.0
  F  F2162  1  0.88732627  0.61184930  0.33871255  1.0
  F  F2163  1  0.88732627  0.70275839  0.33871255  1.0
  F  F2164  1  0.88732627  0.79366748  0.33871255  1.0
  F  F2165  1  0.88732627  0.88457657  0.33871255  1.0
  F  F2166  1  0.88732627  0.97548566  0.33871255  1.0
  F  F2167  1  0.97823536  0.06639475  0.33871255  1.0
  F  F2168  1  0.97823536  0.15730384  0.33871255  1.0
  F  F2169  1  0.97823536  0.24821293  0.33871255  1.0
  F  F2170  1  0.97823536  0.33912202  0.33871255  1.0
  F  F2171  1  0.97823536  0.43003112  0.33871255  1.0
  F  F2172  1  0.97823536  0.52094021  0.33871255  1.0
  F  F2173  1  0.97823536  0.61184930  0.33871255  1.0
  F  F2174  1  0.97823536  0.70275839  0.33871255  1.0
  F  F2175  1  0.97823536  0.79366748  0.33871255  1.0
  F  F2176  1  0.97823536  0.88457657  0.33871255  1.0
  F  F2177  1  0.97823536  0.97548566  0.33871255  1.0
  F  F2178  1  0.02156671  0.06669463  0.27138401  1.0
  F  F2179  1  0.02156671  0.15760372  0.27138401  1.0
  F  F2180  1  0.02156671  0.24851281  0.27138401  1.0
  F  F2181  1  0.02156671  0.33942191  0.27138401  1.0
  F  F2182  1  0.02156671  0.43033100  0.27138401  1.0
  F  F2183  1  0.02156671  0.52124009  0.27138401  1.0
  F  F2184  1  0.02156671  0.61214918  0.27138401  1.0
  F  F2185  1  0.02156671  0.70305827  0.27138401  1.0
  F  F2186  1  0.02156671  0.79396736  0.27138401  1.0
  F  F2187  1  0.02156671  0.88487645  0.27138401  1.0
  F  F2188  1  0.02156671  0.97578554  0.27138401  1.0
  F  F2189  1  0.11247580  0.06669463  0.27138401  1.0
  F  F2190  1  0.11247580  0.15760372  0.27138401  1.0
  F  F2191  1  0.11247580  0.24851281  0.27138401  1.0
  F  F2192  1  0.11247580  0.33942191  0.27138401  1.0
  F  F2193  1  0.11247580  0.43033100  0.27138401  1.0
  F  F2194  1  0.11247580  0.52124009  0.27138401  1.0
  F  F2195  1  0.11247580  0.61214918  0.27138401  1.0
  F  F2196  1  0.11247580  0.70305827  0.27138401  1.0
  F  F2197  1  0.11247580  0.79396736  0.27138401  1.0
  F  F2198  1  0.11247580  0.88487645  0.27138401  1.0
  F  F2199  1  0.11247580  0.97578554  0.27138401  1.0
  F  F2200  1  0.20338489  0.06669463  0.27138401  1.0
  F  F2201  1  0.20338489  0.15760372  0.27138401  1.0
  F  F2202  1  0.20338489  0.24851281  0.27138401  1.0
  F  F2203  1  0.20338489  0.33942191  0.27138401  1.0
  F  F2204  1  0.20338489  0.43033100  0.27138401  1.0
  F  F2205  1  0.20338489  0.52124009  0.27138401  1.0
  F  F2206  1  0.20338489  0.61214918  0.27138401  1.0
  F  F2207  1  0.20338489  0.70305827  0.27138401  1.0
  F  F2208  1  0.20338489  0.79396736  0.27138401  1.0
  F  F2209  1  0.20338489  0.88487645  0.27138401  1.0
  F  F2210  1  0.20338489  0.97578554  0.27138401  1.0
  F  F2211  1  0.29429398  0.06669463  0.27138401  1.0
  F  F2212  1  0.29429398  0.15760372  0.27138401  1.0
  F  F2213  1  0.29429398  0.24851281  0.27138401  1.0
  F  F2214  1  0.29429398  0.33942191  0.27138401  1.0
  F  F2215  1  0.29429398  0.43033100  0.27138401  1.0
  F  F2216  1  0.29429398  0.52124009  0.27138401  1.0
  F  F2217  1  0.29429398  0.61214918  0.27138401  1.0
  F  F2218  1  0.29429398  0.70305827  0.27138401  1.0
  F  F2219  1  0.29429398  0.79396736  0.27138401  1.0
  F  F2220  1  0.29429398  0.88487645  0.27138401  1.0
  F  F2221  1  0.29429398  0.97578554  0.27138401  1.0
  F  F2222  1  0.38520307  0.06669463  0.27138401  1.0
  F  F2223  1  0.38520307  0.15760372  0.27138401  1.0
  F  F2224  1  0.38520307  0.24851281  0.27138401  1.0
  F  F2225  1  0.38520307  0.33942191  0.27138401  1.0
  F  F2226  1  0.38520307  0.43033100  0.27138401  1.0
  F  F2227  1  0.38520307  0.52124009  0.27138401  1.0
  F  F2228  1  0.38520307  0.61214918  0.27138401  1.0
  F  F2229  1  0.38520307  0.70305827  0.27138401  1.0
  F  F2230  1  0.38520307  0.79396736  0.27138401  1.0
  F  F2231  1  0.38520307  0.88487645  0.27138401  1.0
  F  F2232  1  0.38520307  0.97578554  0.27138401  1.0
  F  F2233  1  0.47611216  0.06669463  0.27138401  1.0
  F  F2234  1  0.47611216  0.15760372  0.27138401  1.0
  F  F2235  1  0.47611216  0.24851281  0.27138401  1.0
  F  F2236  1  0.47611216  0.33942191  0.27138401  1.0
  F  F2237  1  0.47611216  0.43033100  0.27138401  1.0
  F  F2238  1  0.47611216  0.52124009  0.27138401  1.0
  F  F2239  1  0.47611216  0.61214918  0.27138401  1.0
  F  F2240  1  0.47611216  0.70305827  0.27138401  1.0
  F  F2241  1  0.47611216  0.79396736  0.27138401  1.0
  F  F2242  1  0.47611216  0.88487645  0.27138401  1.0
  F  F2243  1  0.47611216  0.97578554  0.27138401  1.0
  F  F2244  1  0.56702125  0.06669463  0.27138401  1.0
  F  F2245  1  0.56702125  0.15760372  0.27138401  1.0
  F  F2246  1  0.56702125  0.24851281  0.27138401  1.0
  F  F2247  1  0.56702125  0.33942191  0.27138401  1.0
  F  F2248  1  0.56702125  0.43033100  0.27138401  1.0
  F  F2249  1  0.56702125  0.52124009  0.27138401  1.0
  F  F2250  1  0.56702125  0.61214918  0.27138401  1.0
  F  F2251  1  0.56702125  0.70305827  0.27138401  1.0
  F  F2252  1  0.56702125  0.79396736  0.27138401  1.0
  F  F2253  1  0.56702125  0.88487645  0.27138401  1.0
  F  F2254  1  0.56702125  0.97578554  0.27138401  1.0
  F  F2255  1  0.65793034  0.06669463  0.27138401  1.0
  F  F2256  1  0.65793034  0.15760372  0.27138401  1.0
  F  F2257  1  0.65793034  0.24851281  0.27138401  1.0
  F  F2258  1  0.65793034  0.33942191  0.27138401  1.0
  F  F2259  1  0.65793034  0.43033100  0.27138401  1.0
  F  F2260  1  0.65793034  0.52124009  0.27138401  1.0
  F  F2261  1  0.65793034  0.61214918  0.27138401  1.0
  F  F2262  1  0.65793034  0.70305827  0.27138401  1.0
  F  F2263  1  0.65793034  0.79396736  0.27138401  1.0
  F  F2264  1  0.65793034  0.88487645  0.27138401  1.0
  F  F2265  1  0.65793034  0.97578554  0.27138401  1.0
  F  F2266  1  0.74883943  0.06669463  0.27138401  1.0
  F  F2267  1  0.74883943  0.15760372  0.27138401  1.0
  F  F2268  1  0.74883943  0.24851281  0.27138401  1.0
  F  F2269  1  0.74883943  0.33942191  0.27138401  1.0
  F  F2270  1  0.74883943  0.43033100  0.27138401  1.0
  F  F2271  1  0.74883943  0.52124009  0.27138401  1.0
  F  F2272  1  0.74883943  0.61214918  0.27138401  1.0
  F  F2273  1  0.74883943  0.70305827  0.27138401  1.0
  F  F2274  1  0.74883943  0.79396736  0.27138401  1.0
  F  F2275  1  0.74883943  0.88487645  0.27138401  1.0
  F  F2276  1  0.74883943  0.97578554  0.27138401  1.0
  F  F2277  1  0.83974852  0.06669463  0.27138401  1.0
  F  F2278  1  0.83974852  0.15760372  0.27138401  1.0
  F  F2279  1  0.83974852  0.24851281  0.27138401  1.0
  F  F2280  1  0.83974852  0.33942191  0.27138401  1.0
  F  F2281  1  0.83974852  0.43033100  0.27138401  1.0
  F  F2282  1  0.83974852  0.52124009  0.27138401  1.0
  F  F2283  1  0.83974852  0.61214918  0.27138401  1.0
  F  F2284  1  0.83974852  0.70305827  0.27138401  1.0
  F  F2285  1  0.83974852  0.79396736  0.27138401  1.0
  F  F2286  1  0.83974852  0.88487645  0.27138401  1.0
  F  F2287  1  0.83974852  0.97578554  0.27138401  1.0
  F  F2288  1  0.93065762  0.06669463  0.27138401  1.0
  F  F2289  1  0.93065762  0.15760372  0.27138401  1.0
  F  F2290  1  0.93065762  0.24851281  0.27138401  1.0
  F  F2291  1  0.93065762  0.33942191  0.27138401  1.0
  F  F2292  1  0.93065762  0.43033100  0.27138401  1.0
  F  F2293  1  0.93065762  0.52124009  0.27138401  1.0
  F  F2294  1  0.93065762  0.61214918  0.27138401  1.0
  F  F2295  1  0.93065762  0.70305827  0.27138401  1.0
  F  F2296  1  0.93065762  0.79396736  0.27138401  1.0
  F  F2297  1  0.93065762  0.88487645  0.27138401  1.0
  F  F2298  1  0.93065762  0.97578554  0.27138401  1.0
  F  F2299  1  0.09075941  0.00283160  0.30560113  1.0
  F  F2300  1  0.09075941  0.09374070  0.30560113  1.0
  F  F2301  1  0.09075941  0.18464979  0.30560113  1.0
  F  F2302  1  0.09075941  0.27555888  0.30560113  1.0
  F  F2303  1  0.09075941  0.36646797  0.30560113  1.0
  F  F2304  1  0.09075941  0.45737706  0.30560113  1.0
  F  F2305  1  0.09075941  0.54828615  0.30560113  1.0
  F  F2306  1  0.09075941  0.63919524  0.30560113  1.0
  F  F2307  1  0.09075941  0.73010433  0.30560113  1.0
  F  F2308  1  0.09075941  0.82101342  0.30560113  1.0
  F  F2309  1  0.09075941  0.91192251  0.30560113  1.0
  F  F2310  1  0.18166850  0.00283160  0.30560113  1.0
  F  F2311  1  0.18166850  0.09374070  0.30560113  1.0
  F  F2312  1  0.18166850  0.18464979  0.30560113  1.0
  F  F2313  1  0.18166850  0.27555888  0.30560113  1.0
  F  F2314  1  0.18166850  0.36646797  0.30560113  1.0
  F  F2315  1  0.18166850  0.45737706  0.30560113  1.0
  F  F2316  1  0.18166850  0.54828615  0.30560113  1.0
  F  F2317  1  0.18166850  0.63919524  0.30560113  1.0
  F  F2318  1  0.18166850  0.73010433  0.30560113  1.0
  F  F2319  1  0.18166850  0.82101342  0.30560113  1.0
  F  F2320  1  0.18166850  0.91192251  0.30560113  1.0
  F  F2321  1  0.27257760  0.00283160  0.30560113  1.0
  F  F2322  1  0.27257760  0.09374070  0.30560113  1.0
  F  F2323  1  0.27257760  0.18464979  0.30560113  1.0
  F  F2324  1  0.27257760  0.27555888  0.30560113  1.0
  F  F2325  1  0.27257760  0.36646797  0.30560113  1.0
  F  F2326  1  0.27257760  0.45737706  0.30560113  1.0
  F  F2327  1  0.27257760  0.54828615  0.30560113  1.0
  F  F2328  1  0.27257760  0.63919524  0.30560113  1.0
  F  F2329  1  0.27257760  0.73010433  0.30560113  1.0
  F  F2330  1  0.27257760  0.82101342  0.30560113  1.0
  F  F2331  1  0.27257760  0.91192251  0.30560113  1.0
  F  F2332  1  0.36348669  0.00283160  0.30560113  1.0
  F  F2333  1  0.36348669  0.09374070  0.30560113  1.0
  F  F2334  1  0.36348669  0.18464979  0.30560113  1.0
  F  F2335  1  0.36348669  0.27555888  0.30560113  1.0
  F  F2336  1  0.36348669  0.36646797  0.30560113  1.0
  F  F2337  1  0.36348669  0.45737706  0.30560113  1.0
  F  F2338  1  0.36348669  0.54828615  0.30560113  1.0
  F  F2339  1  0.36348669  0.63919524  0.30560113  1.0
  F  F2340  1  0.36348669  0.73010433  0.30560113  1.0
  F  F2341  1  0.36348669  0.82101342  0.30560113  1.0
  F  F2342  1  0.36348669  0.91192251  0.30560113  1.0
  F  F2343  1  0.45439578  0.00283160  0.30560113  1.0
  F  F2344  1  0.45439578  0.09374070  0.30560113  1.0
  F  F2345  1  0.45439578  0.18464979  0.30560113  1.0
  F  F2346  1  0.45439578  0.27555888  0.30560113  1.0
  F  F2347  1  0.45439578  0.36646797  0.30560113  1.0
  F  F2348  1  0.45439578  0.45737706  0.30560113  1.0
  F  F2349  1  0.45439578  0.54828615  0.30560113  1.0
  F  F2350  1  0.45439578  0.63919524  0.30560113  1.0
  F  F2351  1  0.45439578  0.73010433  0.30560113  1.0
  F  F2352  1  0.45439578  0.82101342  0.30560113  1.0
  F  F2353  1  0.45439578  0.91192251  0.30560113  1.0
  F  F2354  1  0.54530487  0.00283160  0.30560113  1.0
  F  F2355  1  0.54530487  0.09374070  0.30560113  1.0
  F  F2356  1  0.54530487  0.18464979  0.30560113  1.0
  F  F2357  1  0.54530487  0.27555888  0.30560113  1.0
  F  F2358  1  0.54530487  0.36646797  0.30560113  1.0
  F  F2359  1  0.54530487  0.45737706  0.30560113  1.0
  F  F2360  1  0.54530487  0.54828615  0.30560113  1.0
  F  F2361  1  0.54530487  0.63919524  0.30560113  1.0
  F  F2362  1  0.54530487  0.73010433  0.30560113  1.0
  F  F2363  1  0.54530487  0.82101342  0.30560113  1.0
  F  F2364  1  0.54530487  0.91192251  0.30560113  1.0
  F  F2365  1  0.63621396  0.00283160  0.30560113  1.0
  F  F2366  1  0.63621396  0.09374070  0.30560113  1.0
  F  F2367  1  0.63621396  0.18464979  0.30560113  1.0
  F  F2368  1  0.63621396  0.27555888  0.30560113  1.0
  F  F2369  1  0.63621396  0.36646797  0.30560113  1.0
  F  F2370  1  0.63621396  0.45737706  0.30560113  1.0
  F  F2371  1  0.63621396  0.54828615  0.30560113  1.0
  F  F2372  1  0.63621396  0.63919524  0.30560113  1.0
  F  F2373  1  0.63621396  0.73010433  0.30560113  1.0
  F  F2374  1  0.63621396  0.82101342  0.30560113  1.0
  F  F2375  1  0.63621396  0.91192251  0.30560113  1.0
  F  F2376  1  0.72712305  0.00283160  0.30560113  1.0
  F  F2377  1  0.72712305  0.09374070  0.30560113  1.0
  F  F2378  1  0.72712305  0.18464979  0.30560113  1.0
  F  F2379  1  0.72712305  0.27555888  0.30560113  1.0
  F  F2380  1  0.72712305  0.36646797  0.30560113  1.0
  F  F2381  1  0.72712305  0.45737706  0.30560113  1.0
  F  F2382  1  0.72712305  0.54828615  0.30560113  1.0
  F  F2383  1  0.72712305  0.63919524  0.30560113  1.0
  F  F2384  1  0.72712305  0.73010433  0.30560113  1.0
  F  F2385  1  0.72712305  0.82101342  0.30560113  1.0
  F  F2386  1  0.72712305  0.91192251  0.30560113  1.0
  F  F2387  1  0.81803214  0.00283160  0.30560113  1.0
  F  F2388  1  0.81803214  0.09374070  0.30560113  1.0
  F  F2389  1  0.81803214  0.18464979  0.30560113  1.0
  F  F2390  1  0.81803214  0.27555888  0.30560113  1.0
  F  F2391  1  0.81803214  0.36646797  0.30560113  1.0
  F  F2392  1  0.81803214  0.45737706  0.30560113  1.0
  F  F2393  1  0.81803214  0.54828615  0.30560113  1.0
  F  F2394  1  0.81803214  0.63919524  0.30560113  1.0
  F  F2395  1  0.81803214  0.73010433  0.30560113  1.0
  F  F2396  1  0.81803214  0.82101342  0.30560113  1.0
  F  F2397  1  0.81803214  0.91192251  0.30560113  1.0
  F  F2398  1  0.90894123  0.00283160  0.30560113  1.0
  F  F2399  1  0.90894123  0.09374070  0.30560113  1.0
  F  F2400  1  0.90894123  0.18464979  0.30560113  1.0
  F  F2401  1  0.90894123  0.27555888  0.30560113  1.0
  F  F2402  1  0.90894123  0.36646797  0.30560113  1.0
  F  F2403  1  0.90894123  0.45737706  0.30560113  1.0
  F  F2404  1  0.90894123  0.54828615  0.30560113  1.0
  F  F2405  1  0.90894123  0.63919524  0.30560113  1.0
  F  F2406  1  0.90894123  0.73010433  0.30560113  1.0
  F  F2407  1  0.90894123  0.82101342  0.30560113  1.0
  F  F2408  1  0.90894123  0.91192251  0.30560113  1.0
  F  F2409  1  0.99985032  0.00283160  0.30560113  1.0
  F  F2410  1  0.99985032  0.09374070  0.30560113  1.0
  F  F2411  1  0.99985032  0.18464979  0.30560113  1.0
  F  F2412  1  0.99985032  0.27555888  0.30560113  1.0
  F  F2413  1  0.99985032  0.36646797  0.30560113  1.0
  F  F2414  1  0.99985032  0.45737706  0.30560113  1.0
  F  F2415  1  0.99985032  0.54828615  0.30560113  1.0
  F  F2416  1  0.99985032  0.63919524  0.30560113  1.0
  F  F2417  1  0.99985032  0.73010433  0.30560113  1.0
  F  F2418  1  0.99985032  0.82101342  0.30560113  1.0
  F  F2419  1  0.99985032  0.91192251  0.30560113  1.0
  F  F2420  1  0.06721919  0.06996888  0.27153922  1.0
  F  F2421  1  0.06721919  0.16087798  0.27153922  1.0
  F  F2422  1  0.06721919  0.25178707  0.27153922  1.0
  F  F2423  1  0.06721919  0.34269616  0.27153922  1.0
  F  F2424  1  0.06721919  0.43360525  0.27153922  1.0
  F  F2425  1  0.06721919  0.52451434  0.27153922  1.0
  F  F2426  1  0.06721919  0.61542343  0.27153922  1.0
  F  F2427  1  0.06721919  0.70633252  0.27153922  1.0
  F  F2428  1  0.06721919  0.79724161  0.27153922  1.0
  F  F2429  1  0.06721919  0.88815070  0.27153922  1.0
  F  F2430  1  0.06721919  0.97905979  0.27153922  1.0
  F  F2431  1  0.15812828  0.06996888  0.27153922  1.0
  F  F2432  1  0.15812828  0.16087798  0.27153922  1.0
  F  F2433  1  0.15812828  0.25178707  0.27153922  1.0
  F  F2434  1  0.15812828  0.34269616  0.27153922  1.0
  F  F2435  1  0.15812828  0.43360525  0.27153922  1.0
  F  F2436  1  0.15812828  0.52451434  0.27153922  1.0
  F  F2437  1  0.15812828  0.61542343  0.27153922  1.0
  F  F2438  1  0.15812828  0.70633252  0.27153922  1.0
  F  F2439  1  0.15812828  0.79724161  0.27153922  1.0
  F  F2440  1  0.15812828  0.88815070  0.27153922  1.0
  F  F2441  1  0.15812828  0.97905979  0.27153922  1.0
  F  F2442  1  0.24903737  0.06996888  0.27153922  1.0
  F  F2443  1  0.24903737  0.16087798  0.27153922  1.0
  F  F2444  1  0.24903737  0.25178707  0.27153922  1.0
  F  F2445  1  0.24903737  0.34269616  0.27153922  1.0
  F  F2446  1  0.24903737  0.43360525  0.27153922  1.0
  F  F2447  1  0.24903737  0.52451434  0.27153922  1.0
  F  F2448  1  0.24903737  0.61542343  0.27153922  1.0
  F  F2449  1  0.24903737  0.70633252  0.27153922  1.0
  F  F2450  1  0.24903737  0.79724161  0.27153922  1.0
  F  F2451  1  0.24903737  0.88815070  0.27153922  1.0
  F  F2452  1  0.24903737  0.97905979  0.27153922  1.0
  F  F2453  1  0.33994646  0.06996888  0.27153922  1.0
  F  F2454  1  0.33994646  0.16087798  0.27153922  1.0
  F  F2455  1  0.33994646  0.25178707  0.27153922  1.0
  F  F2456  1  0.33994646  0.34269616  0.27153922  1.0
  F  F2457  1  0.33994646  0.43360525  0.27153922  1.0
  F  F2458  1  0.33994646  0.52451434  0.27153922  1.0
  F  F2459  1  0.33994646  0.61542343  0.27153922  1.0
  F  F2460  1  0.33994646  0.70633252  0.27153922  1.0
  F  F2461  1  0.33994646  0.79724161  0.27153922  1.0
  F  F2462  1  0.33994646  0.88815070  0.27153922  1.0
  F  F2463  1  0.33994646  0.97905979  0.27153922  1.0
  F  F2464  1  0.43085555  0.06996888  0.27153922  1.0
  F  F2465  1  0.43085555  0.16087798  0.27153922  1.0
  F  F2466  1  0.43085555  0.25178707  0.27153922  1.0
  F  F2467  1  0.43085555  0.34269616  0.27153922  1.0
  F  F2468  1  0.43085555  0.43360525  0.27153922  1.0
  F  F2469  1  0.43085555  0.52451434  0.27153922  1.0
  F  F2470  1  0.43085555  0.61542343  0.27153922  1.0
  F  F2471  1  0.43085555  0.70633252  0.27153922  1.0
  F  F2472  1  0.43085555  0.79724161  0.27153922  1.0
  F  F2473  1  0.43085555  0.88815070  0.27153922  1.0
  F  F2474  1  0.43085555  0.97905979  0.27153922  1.0
  F  F2475  1  0.52176464  0.06996888  0.27153922  1.0
  F  F2476  1  0.52176464  0.16087798  0.27153922  1.0
  F  F2477  1  0.52176464  0.25178707  0.27153922  1.0
  F  F2478  1  0.52176464  0.34269616  0.27153922  1.0
  F  F2479  1  0.52176464  0.43360525  0.27153922  1.0
  F  F2480  1  0.52176464  0.52451434  0.27153922  1.0
  F  F2481  1  0.52176464  0.61542343  0.27153922  1.0
  F  F2482  1  0.52176464  0.70633252  0.27153922  1.0
  F  F2483  1  0.52176464  0.79724161  0.27153922  1.0
  F  F2484  1  0.52176464  0.88815070  0.27153922  1.0
  F  F2485  1  0.52176464  0.97905979  0.27153922  1.0
  F  F2486  1  0.61267373  0.06996888  0.27153922  1.0
  F  F2487  1  0.61267373  0.16087798  0.27153922  1.0
  F  F2488  1  0.61267373  0.25178707  0.27153922  1.0
  F  F2489  1  0.61267373  0.34269616  0.27153922  1.0
  F  F2490  1  0.61267373  0.43360525  0.27153922  1.0
  F  F2491  1  0.61267373  0.52451434  0.27153922  1.0
  F  F2492  1  0.61267373  0.61542343  0.27153922  1.0
  F  F2493  1  0.61267373  0.70633252  0.27153922  1.0
  F  F2494  1  0.61267373  0.79724161  0.27153922  1.0
  F  F2495  1  0.61267373  0.88815070  0.27153922  1.0
  F  F2496  1  0.61267373  0.97905979  0.27153922  1.0
  F  F2497  1  0.70358282  0.06996888  0.27153922  1.0
  F  F2498  1  0.70358282  0.16087798  0.27153922  1.0
  F  F2499  1  0.70358282  0.25178707  0.27153922  1.0
  F  F2500  1  0.70358282  0.34269616  0.27153922  1.0
  F  F2501  1  0.70358282  0.43360525  0.27153922  1.0
  F  F2502  1  0.70358282  0.52451434  0.27153922  1.0
  F  F2503  1  0.70358282  0.61542343  0.27153922  1.0
  F  F2504  1  0.70358282  0.70633252  0.27153922  1.0
  F  F2505  1  0.70358282  0.79724161  0.27153922  1.0
  F  F2506  1  0.70358282  0.88815070  0.27153922  1.0
  F  F2507  1  0.70358282  0.97905979  0.27153922  1.0
  F  F2508  1  0.79449192  0.06996888  0.27153922  1.0
  F  F2509  1  0.79449191  0.16087798  0.27153922  1.0
  F  F2510  1  0.79449191  0.25178707  0.27153922  1.0
  F  F2511  1  0.79449191  0.34269616  0.27153922  1.0
  F  F2512  1  0.79449192  0.43360525  0.27153922  1.0
  F  F2513  1  0.79449191  0.52451434  0.27153922  1.0
  F  F2514  1  0.79449191  0.61542343  0.27153922  1.0
  F  F2515  1  0.79449191  0.70633252  0.27153922  1.0
  F  F2516  1  0.79449191  0.79724161  0.27153922  1.0
  F  F2517  1  0.79449192  0.88815070  0.27153922  1.0
  F  F2518  1  0.79449191  0.97905979  0.27153922  1.0
  F  F2519  1  0.88540101  0.06996888  0.27153922  1.0
  F  F2520  1  0.88540101  0.16087798  0.27153922  1.0
  F  F2521  1  0.88540101  0.25178707  0.27153922  1.0
  F  F2522  1  0.88540101  0.34269616  0.27153922  1.0
  F  F2523  1  0.88540101  0.43360525  0.27153922  1.0
  F  F2524  1  0.88540101  0.52451434  0.27153922  1.0
  F  F2525  1  0.88540101  0.61542343  0.27153922  1.0
  F  F2526  1  0.88540101  0.70633252  0.27153922  1.0
  F  F2527  1  0.88540101  0.79724161  0.27153922  1.0
  F  F2528  1  0.88540101  0.88815070  0.27153922  1.0
  F  F2529  1  0.88540101  0.97905979  0.27153922  1.0
  F  F2530  1  0.97631010  0.06996888  0.27153922  1.0
  F  F2531  1  0.97631010  0.16087798  0.27153922  1.0
  F  F2532  1  0.97631010  0.25178707  0.27153922  1.0
  F  F2533  1  0.97631010  0.34269616  0.27153922  1.0
  F  F2534  1  0.97631010  0.43360525  0.27153922  1.0
  F  F2535  1  0.97631010  0.52451434  0.27153922  1.0
  F  F2536  1  0.97631010  0.61542343  0.27153922  1.0
  F  F2537  1  0.97631010  0.70633252  0.27153922  1.0
  F  F2538  1  0.97631010  0.79724161  0.27153922  1.0
  F  F2539  1  0.97631010  0.88815070  0.27153922  1.0
  F  F2540  1  0.97631010  0.97905979  0.27153922  1.0
  F  F2541  1  0.04560422  0.04262294  0.30465064  1.0
  F  F2542  1  0.04560422  0.13353203  0.30465064  1.0
  F  F2543  1  0.04560422  0.22444112  0.30465064  1.0
  F  F2544  1  0.04560422  0.31535021  0.30465064  1.0
  F  F2545  1  0.04560422  0.40625930  0.30465064  1.0
  F  F2546  1  0.04560422  0.49716840  0.30465064  1.0
  F  F2547  1  0.04560422  0.58807749  0.30465064  1.0
  F  F2548  1  0.04560422  0.67898658  0.30465064  1.0
  F  F2549  1  0.04560422  0.76989567  0.30465064  1.0
  F  F2550  1  0.04560422  0.86080476  0.30465064  1.0
  F  F2551  1  0.04560422  0.95171385  0.30465064  1.0
  F  F2552  1  0.13651331  0.04262294  0.30465064  1.0
  F  F2553  1  0.13651331  0.13353203  0.30465064  1.0
  F  F2554  1  0.13651331  0.22444112  0.30465064  1.0
  F  F2555  1  0.13651331  0.31535021  0.30465064  1.0
  F  F2556  1  0.13651331  0.40625930  0.30465064  1.0
  F  F2557  1  0.13651331  0.49716840  0.30465064  1.0
  F  F2558  1  0.13651331  0.58807749  0.30465064  1.0
  F  F2559  1  0.13651331  0.67898658  0.30465064  1.0
  F  F2560  1  0.13651331  0.76989567  0.30465064  1.0
  F  F2561  1  0.13651331  0.86080476  0.30465064  1.0
  F  F2562  1  0.13651331  0.95171385  0.30465064  1.0
  F  F2563  1  0.22742240  0.04262294  0.30465064  1.0
  F  F2564  1  0.22742240  0.13353203  0.30465064  1.0
  F  F2565  1  0.22742240  0.22444112  0.30465064  1.0
  F  F2566  1  0.22742240  0.31535021  0.30465064  1.0
  F  F2567  1  0.22742240  0.40625930  0.30465064  1.0
  F  F2568  1  0.22742240  0.49716840  0.30465064  1.0
  F  F2569  1  0.22742240  0.58807749  0.30465064  1.0
  F  F2570  1  0.22742240  0.67898658  0.30465064  1.0
  F  F2571  1  0.22742240  0.76989567  0.30465064  1.0
  F  F2572  1  0.22742240  0.86080476  0.30465064  1.0
  F  F2573  1  0.22742240  0.95171385  0.30465064  1.0
  F  F2574  1  0.31833150  0.04262294  0.30465064  1.0
  F  F2575  1  0.31833150  0.13353203  0.30465064  1.0
  F  F2576  1  0.31833150  0.22444112  0.30465064  1.0
  F  F2577  1  0.31833150  0.31535021  0.30465064  1.0
  F  F2578  1  0.31833150  0.40625930  0.30465064  1.0
  F  F2579  1  0.31833150  0.49716840  0.30465064  1.0
  F  F2580  1  0.31833150  0.58807749  0.30465064  1.0
  F  F2581  1  0.31833150  0.67898658  0.30465064  1.0
  F  F2582  1  0.31833150  0.76989567  0.30465064  1.0
  F  F2583  1  0.31833150  0.86080476  0.30465064  1.0
  F  F2584  1  0.31833150  0.95171385  0.30465064  1.0
  F  F2585  1  0.40924059  0.04262294  0.30465064  1.0
  F  F2586  1  0.40924059  0.13353203  0.30465064  1.0
  F  F2587  1  0.40924059  0.22444112  0.30465064  1.0
  F  F2588  1  0.40924059  0.31535021  0.30465064  1.0
  F  F2589  1  0.40924059  0.40625930  0.30465064  1.0
  F  F2590  1  0.40924059  0.49716840  0.30465064  1.0
  F  F2591  1  0.40924059  0.58807749  0.30465064  1.0
  F  F2592  1  0.40924059  0.67898658  0.30465064  1.0
  F  F2593  1  0.40924059  0.76989567  0.30465064  1.0
  F  F2594  1  0.40924059  0.86080476  0.30465064  1.0
  F  F2595  1  0.40924059  0.95171385  0.30465064  1.0
  F  F2596  1  0.50014968  0.04262294  0.30465064  1.0
  F  F2597  1  0.50014968  0.13353203  0.30465064  1.0
  F  F2598  1  0.50014968  0.22444112  0.30465064  1.0
  F  F2599  1  0.50014968  0.31535021  0.30465064  1.0
  F  F2600  1  0.50014968  0.40625930  0.30465064  1.0
  F  F2601  1  0.50014968  0.49716840  0.30465064  1.0
  F  F2602  1  0.50014968  0.58807749  0.30465064  1.0
  F  F2603  1  0.50014968  0.67898658  0.30465064  1.0
  F  F2604  1  0.50014968  0.76989567  0.30465064  1.0
  F  F2605  1  0.50014968  0.86080476  0.30465064  1.0
  F  F2606  1  0.50014968  0.95171385  0.30465064  1.0
  F  F2607  1  0.59105877  0.04262294  0.30465064  1.0
  F  F2608  1  0.59105877  0.13353203  0.30465064  1.0
  F  F2609  1  0.59105877  0.22444112  0.30465064  1.0
  F  F2610  1  0.59105877  0.31535021  0.30465064  1.0
  F  F2611  1  0.59105877  0.40625930  0.30465064  1.0
  F  F2612  1  0.59105877  0.49716840  0.30465064  1.0
  F  F2613  1  0.59105877  0.58807749  0.30465064  1.0
  F  F2614  1  0.59105877  0.67898658  0.30465064  1.0
  F  F2615  1  0.59105877  0.76989567  0.30465064  1.0
  F  F2616  1  0.59105877  0.86080476  0.30465064  1.0
  F  F2617  1  0.59105877  0.95171385  0.30465064  1.0
  F  F2618  1  0.68196786  0.04262294  0.30465064  1.0
  F  F2619  1  0.68196786  0.13353203  0.30465064  1.0
  F  F2620  1  0.68196786  0.22444112  0.30465064  1.0
  F  F2621  1  0.68196786  0.31535021  0.30465064  1.0
  F  F2622  1  0.68196786  0.40625930  0.30465064  1.0
  F  F2623  1  0.68196786  0.49716840  0.30465064  1.0
  F  F2624  1  0.68196786  0.58807749  0.30465064  1.0
  F  F2625  1  0.68196786  0.67898658  0.30465064  1.0
  F  F2626  1  0.68196786  0.76989567  0.30465064  1.0
  F  F2627  1  0.68196786  0.86080476  0.30465064  1.0
  F  F2628  1  0.68196786  0.95171385  0.30465064  1.0
  F  F2629  1  0.77287695  0.04262294  0.30465064  1.0
  F  F2630  1  0.77287695  0.13353203  0.30465064  1.0
  F  F2631  1  0.77287695  0.22444112  0.30465064  1.0
  F  F2632  1  0.77287695  0.31535021  0.30465064  1.0
  F  F2633  1  0.77287695  0.40625930  0.30465064  1.0
  F  F2634  1  0.77287695  0.49716840  0.30465064  1.0
  F  F2635  1  0.77287695  0.58807749  0.30465064  1.0
  F  F2636  1  0.77287695  0.67898658  0.30465064  1.0
  F  F2637  1  0.77287695  0.76989567  0.30465064  1.0
  F  F2638  1  0.77287695  0.86080476  0.30465064  1.0
  F  F2639  1  0.77287695  0.95171385  0.30465064  1.0
  F  F2640  1  0.86378604  0.04262294  0.30465064  1.0
  F  F2641  1  0.86378604  0.13353203  0.30465064  1.0
  F  F2642  1  0.86378604  0.22444112  0.30465064  1.0
  F  F2643  1  0.86378604  0.31535021  0.30465064  1.0
  F  F2644  1  0.86378604  0.40625930  0.30465064  1.0
  F  F2645  1  0.86378604  0.49716840  0.30465064  1.0
  F  F2646  1  0.86378604  0.58807749  0.30465064  1.0
  F  F2647  1  0.86378604  0.67898658  0.30465064  1.0
  F  F2648  1  0.86378604  0.76989567  0.30465064  1.0
  F  F2649  1  0.86378604  0.86080476  0.30465064  1.0
  F  F2650  1  0.86378604  0.95171385  0.30465064  1.0
  F  F2651  1  0.95469513  0.04262294  0.30465064  1.0
  F  F2652  1  0.95469513  0.13353203  0.30465064  1.0
  F  F2653  1  0.95469513  0.22444112  0.30465064  1.0
  F  F2654  1  0.95469513  0.31535021  0.30465064  1.0
  F  F2655  1  0.95469513  0.40625930  0.30465064  1.0
  F  F2656  1  0.95469513  0.49716840  0.30465064  1.0
  F  F2657  1  0.95469513  0.58807749  0.30465064  1.0
  F  F2658  1  0.95469513  0.67898658  0.30465064  1.0
  F  F2659  1  0.95469513  0.76989567  0.30465064  1.0
  F  F2660  1  0.95469513  0.86080476  0.30465064  1.0
  F  F2661  1  0.95469513  0.95171385  0.30465064  1.0
  F  F2662  1  0.02388784  0.06966900  0.48172490  1.0
  F  F2663  1  0.02388784  0.16057809  0.48172490  1.0
  F  F2664  1  0.02388784  0.25148719  0.48172490  1.0
  F  F2665  1  0.02388784  0.34239628  0.48172490  1.0
  F  F2666  1  0.02388784  0.43330537  0.48172490  1.0
  F  F2667  1  0.02388784  0.52421446  0.48172490  1.0
  F  F2668  1  0.02388784  0.61512355  0.48172490  1.0
  F  F2669  1  0.02388784  0.70603264  0.48172490  1.0
  F  F2670  1  0.02388784  0.79694173  0.48172490  1.0
  F  F2671  1  0.02388784  0.88785082  0.48172490  1.0
  F  F2672  1  0.02388784  0.97875991  0.48172490  1.0
  F  F2673  1  0.11479693  0.06966900  0.48172490  1.0
  F  F2674  1  0.11479693  0.16057809  0.48172490  1.0
  F  F2675  1  0.11479693  0.25148719  0.48172490  1.0
  F  F2676  1  0.11479693  0.34239628  0.48172490  1.0
  F  F2677  1  0.11479693  0.43330537  0.48172490  1.0
  F  F2678  1  0.11479693  0.52421446  0.48172490  1.0
  F  F2679  1  0.11479693  0.61512355  0.48172490  1.0
  F  F2680  1  0.11479693  0.70603264  0.48172490  1.0
  F  F2681  1  0.11479693  0.79694173  0.48172490  1.0
  F  F2682  1  0.11479693  0.88785082  0.48172490  1.0
  F  F2683  1  0.11479693  0.97875991  0.48172490  1.0
  F  F2684  1  0.20570602  0.06966900  0.48172490  1.0
  F  F2685  1  0.20570602  0.16057809  0.48172490  1.0
  F  F2686  1  0.20570602  0.25148719  0.48172490  1.0
  F  F2687  1  0.20570602  0.34239628  0.48172490  1.0
  F  F2688  1  0.20570602  0.43330537  0.48172490  1.0
  F  F2689  1  0.20570602  0.52421446  0.48172490  1.0
  F  F2690  1  0.20570602  0.61512355  0.48172490  1.0
  F  F2691  1  0.20570602  0.70603264  0.48172490  1.0
  F  F2692  1  0.20570602  0.79694173  0.48172490  1.0
  F  F2693  1  0.20570602  0.88785082  0.48172490  1.0
  F  F2694  1  0.20570602  0.97875991  0.48172490  1.0
  F  F2695  1  0.29661511  0.06966900  0.48172490  1.0
  F  F2696  1  0.29661511  0.16057809  0.48172490  1.0
  F  F2697  1  0.29661511  0.25148719  0.48172490  1.0
  F  F2698  1  0.29661511  0.34239628  0.48172490  1.0
  F  F2699  1  0.29661511  0.43330537  0.48172490  1.0
  F  F2700  1  0.29661511  0.52421446  0.48172490  1.0
  F  F2701  1  0.29661511  0.61512355  0.48172490  1.0
  F  F2702  1  0.29661511  0.70603264  0.48172490  1.0
  F  F2703  1  0.29661511  0.79694173  0.48172490  1.0
  F  F2704  1  0.29661511  0.88785082  0.48172490  1.0
  F  F2705  1  0.29661511  0.97875991  0.48172490  1.0
  F  F2706  1  0.38752420  0.06966900  0.48172490  1.0
  F  F2707  1  0.38752420  0.16057809  0.48172490  1.0
  F  F2708  1  0.38752420  0.25148719  0.48172490  1.0
  F  F2709  1  0.38752420  0.34239628  0.48172490  1.0
  F  F2710  1  0.38752420  0.43330537  0.48172490  1.0
  F  F2711  1  0.38752420  0.52421446  0.48172490  1.0
  F  F2712  1  0.38752420  0.61512355  0.48172490  1.0
  F  F2713  1  0.38752420  0.70603264  0.48172490  1.0
  F  F2714  1  0.38752420  0.79694173  0.48172490  1.0
  F  F2715  1  0.38752420  0.88785082  0.48172490  1.0
  F  F2716  1  0.38752420  0.97875991  0.48172490  1.0
  F  F2717  1  0.47843329  0.06966900  0.48172490  1.0
  F  F2718  1  0.47843329  0.16057809  0.48172490  1.0
  F  F2719  1  0.47843329  0.25148719  0.48172490  1.0
  F  F2720  1  0.47843329  0.34239628  0.48172490  1.0
  F  F2721  1  0.47843329  0.43330537  0.48172490  1.0
  F  F2722  1  0.47843329  0.52421446  0.48172490  1.0
  F  F2723  1  0.47843329  0.61512355  0.48172490  1.0
  F  F2724  1  0.47843329  0.70603264  0.48172490  1.0
  F  F2725  1  0.47843329  0.79694173  0.48172490  1.0
  F  F2726  1  0.47843329  0.88785082  0.48172490  1.0
  F  F2727  1  0.47843329  0.97875991  0.48172490  1.0
  F  F2728  1  0.56934238  0.06966900  0.48172490  1.0
  F  F2729  1  0.56934238  0.16057809  0.48172490  1.0
  F  F2730  1  0.56934238  0.25148719  0.48172490  1.0
  F  F2731  1  0.56934238  0.34239628  0.48172490  1.0
  F  F2732  1  0.56934238  0.43330537  0.48172490  1.0
  F  F2733  1  0.56934238  0.52421446  0.48172490  1.0
  F  F2734  1  0.56934238  0.61512355  0.48172490  1.0
  F  F2735  1  0.56934238  0.70603264  0.48172490  1.0
  F  F2736  1  0.56934238  0.79694173  0.48172490  1.0
  F  F2737  1  0.56934238  0.88785082  0.48172490  1.0
  F  F2738  1  0.56934238  0.97875991  0.48172490  1.0
  F  F2739  1  0.66025148  0.06966900  0.48172490  1.0
  F  F2740  1  0.66025147  0.16057809  0.48172490  1.0
  F  F2741  1  0.66025147  0.25148719  0.48172490  1.0
  F  F2742  1  0.66025148  0.34239628  0.48172490  1.0
  F  F2743  1  0.66025148  0.43330537  0.48172490  1.0
  F  F2744  1  0.66025148  0.52421446  0.48172490  1.0
  F  F2745  1  0.66025147  0.61512355  0.48172490  1.0
  F  F2746  1  0.66025148  0.70603264  0.48172490  1.0
  F  F2747  1  0.66025147  0.79694173  0.48172490  1.0
  F  F2748  1  0.66025148  0.88785082  0.48172490  1.0
  F  F2749  1  0.66025148  0.97875991  0.48172490  1.0
  F  F2750  1  0.75116057  0.06966900  0.48172490  1.0
  F  F2751  1  0.75116057  0.16057809  0.48172490  1.0
  F  F2752  1  0.75116057  0.25148719  0.48172490  1.0
  F  F2753  1  0.75116057  0.34239628  0.48172490  1.0
  F  F2754  1  0.75116057  0.43330537  0.48172490  1.0
  F  F2755  1  0.75116057  0.52421446  0.48172490  1.0
  F  F2756  1  0.75116057  0.61512355  0.48172490  1.0
  F  F2757  1  0.75116057  0.70603264  0.48172490  1.0
  F  F2758  1  0.75116057  0.79694173  0.48172490  1.0
  F  F2759  1  0.75116057  0.88785082  0.48172490  1.0
  F  F2760  1  0.75116057  0.97875991  0.48172490  1.0
  F  F2761  1  0.84206966  0.06966900  0.48172490  1.0
  F  F2762  1  0.84206966  0.16057809  0.48172490  1.0
  F  F2763  1  0.84206966  0.25148719  0.48172490  1.0
  F  F2764  1  0.84206966  0.34239628  0.48172490  1.0
  F  F2765  1  0.84206966  0.43330537  0.48172490  1.0
  F  F2766  1  0.84206966  0.52421446  0.48172490  1.0
  F  F2767  1  0.84206966  0.61512355  0.48172490  1.0
  F  F2768  1  0.84206966  0.70603264  0.48172490  1.0
  F  F2769  1  0.84206966  0.79694173  0.48172490  1.0
  F  F2770  1  0.84206966  0.88785082  0.48172490  1.0
  F  F2771  1  0.84206966  0.97875991  0.48172490  1.0
  F  F2772  1  0.93297875  0.06966900  0.48172490  1.0
  F  F2773  1  0.93297875  0.16057809  0.48172490  1.0
  F  F2774  1  0.93297875  0.25148719  0.48172490  1.0
  F  F2775  1  0.93297875  0.34239628  0.48172490  1.0
  F  F2776  1  0.93297875  0.43330537  0.48172490  1.0
  F  F2777  1  0.93297875  0.52421446  0.48172490  1.0
  F  F2778  1  0.93297875  0.61512355  0.48172490  1.0
  F  F2779  1  0.93297875  0.70603264  0.48172490  1.0
  F  F2780  1  0.93297875  0.79694173  0.48172490  1.0
  F  F2781  1  0.93297875  0.88785082  0.48172490  1.0
  F  F2782  1  0.93297875  0.97875991  0.48172490  1.0
  F  F2783  1  0.06934238  0.02421446  0.41029633  1.0
  F  F2784  1  0.06934238  0.11512355  0.41029633  1.0
  F  F2785  1  0.06934238  0.20603264  0.41029633  1.0
  F  F2786  1  0.06934238  0.29694173  0.41029633  1.0
  F  F2787  1  0.06934238  0.38785082  0.41029633  1.0
  F  F2788  1  0.06934238  0.47875991  0.41029633  1.0
  F  F2789  1  0.06934238  0.56966900  0.41029633  1.0
  F  F2790  1  0.06934238  0.66057809  0.41029633  1.0
  F  F2791  1  0.06934238  0.75148718  0.41029633  1.0
  F  F2792  1  0.06934238  0.84239628  0.41029633  1.0
  F  F2793  1  0.06934238  0.93330537  0.41029633  1.0
  F  F2794  1  0.16025148  0.02421446  0.41029633  1.0
  F  F2795  1  0.16025148  0.11512355  0.41029633  1.0
  F  F2796  1  0.16025148  0.20603264  0.41029633  1.0
  F  F2797  1  0.16025148  0.29694173  0.41029633  1.0
  F  F2798  1  0.16025148  0.38785082  0.41029633  1.0
  F  F2799  1  0.16025148  0.47875991  0.41029633  1.0
  F  F2800  1  0.16025148  0.56966900  0.41029633  1.0
  F  F2801  1  0.16025148  0.66057809  0.41029633  1.0
  F  F2802  1  0.16025148  0.75148718  0.41029633  1.0
  F  F2803  1  0.16025148  0.84239628  0.41029633  1.0
  F  F2804  1  0.16025148  0.93330537  0.41029633  1.0
  F  F2805  1  0.25116057  0.02421446  0.41029633  1.0
  F  F2806  1  0.25116057  0.11512355  0.41029633  1.0
  F  F2807  1  0.25116057  0.20603264  0.41029633  1.0
  F  F2808  1  0.25116057  0.29694173  0.41029633  1.0
  F  F2809  1  0.25116057  0.38785082  0.41029633  1.0
  F  F2810  1  0.25116057  0.47875991  0.41029633  1.0
  F  F2811  1  0.25116057  0.56966900  0.41029633  1.0
  F  F2812  1  0.25116057  0.66057809  0.41029633  1.0
  F  F2813  1  0.25116057  0.75148718  0.41029633  1.0
  F  F2814  1  0.25116057  0.84239628  0.41029633  1.0
  F  F2815  1  0.25116057  0.93330537  0.41029633  1.0
  F  F2816  1  0.34206966  0.02421446  0.41029633  1.0
  F  F2817  1  0.34206966  0.11512355  0.41029633  1.0
  F  F2818  1  0.34206966  0.20603264  0.41029633  1.0
  F  F2819  1  0.34206966  0.29694173  0.41029633  1.0
  F  F2820  1  0.34206966  0.38785082  0.41029633  1.0
  F  F2821  1  0.34206966  0.47875991  0.41029633  1.0
  F  F2822  1  0.34206966  0.56966900  0.41029633  1.0
  F  F2823  1  0.34206966  0.66057809  0.41029633  1.0
  F  F2824  1  0.34206966  0.75148718  0.41029633  1.0
  F  F2825  1  0.34206966  0.84239628  0.41029633  1.0
  F  F2826  1  0.34206966  0.93330537  0.41029633  1.0
  F  F2827  1  0.43297875  0.02421446  0.41029633  1.0
  F  F2828  1  0.43297875  0.11512355  0.41029633  1.0
  F  F2829  1  0.43297875  0.20603264  0.41029633  1.0
  F  F2830  1  0.43297875  0.29694173  0.41029633  1.0
  F  F2831  1  0.43297875  0.38785082  0.41029633  1.0
  F  F2832  1  0.43297875  0.47875991  0.41029633  1.0
  F  F2833  1  0.43297875  0.56966900  0.41029633  1.0
  F  F2834  1  0.43297875  0.66057809  0.41029633  1.0
  F  F2835  1  0.43297875  0.75148718  0.41029633  1.0
  F  F2836  1  0.43297875  0.84239628  0.41029633  1.0
  F  F2837  1  0.43297875  0.93330537  0.41029633  1.0
  F  F2838  1  0.52388784  0.02421446  0.41029633  1.0
  F  F2839  1  0.52388784  0.11512355  0.41029633  1.0
  F  F2840  1  0.52388784  0.20603264  0.41029633  1.0
  F  F2841  1  0.52388784  0.29694173  0.41029633  1.0
  F  F2842  1  0.52388784  0.38785082  0.41029633  1.0
  F  F2843  1  0.52388784  0.47875991  0.41029633  1.0
  F  F2844  1  0.52388784  0.56966900  0.41029633  1.0
  F  F2845  1  0.52388784  0.66057809  0.41029633  1.0
  F  F2846  1  0.52388784  0.75148718  0.41029633  1.0
  F  F2847  1  0.52388784  0.84239628  0.41029633  1.0
  F  F2848  1  0.52388784  0.93330537  0.41029633  1.0
  F  F2849  1  0.61479693  0.02421446  0.41029633  1.0
  F  F2850  1  0.61479693  0.11512355  0.41029633  1.0
  F  F2851  1  0.61479693  0.20603264  0.41029633  1.0
  F  F2852  1  0.61479693  0.29694173  0.41029633  1.0
  F  F2853  1  0.61479693  0.38785082  0.41029633  1.0
  F  F2854  1  0.61479693  0.47875991  0.41029633  1.0
  F  F2855  1  0.61479693  0.56966900  0.41029633  1.0
  F  F2856  1  0.61479693  0.66057809  0.41029633  1.0
  F  F2857  1  0.61479693  0.75148718  0.41029633  1.0
  F  F2858  1  0.61479693  0.84239628  0.41029633  1.0
  F  F2859  1  0.61479693  0.93330537  0.41029633  1.0
  F  F2860  1  0.70570602  0.02421446  0.41029633  1.0
  F  F2861  1  0.70570602  0.11512355  0.41029633  1.0
  F  F2862  1  0.70570602  0.20603264  0.41029633  1.0
  F  F2863  1  0.70570602  0.29694173  0.41029633  1.0
  F  F2864  1  0.70570602  0.38785082  0.41029633  1.0
  F  F2865  1  0.70570602  0.47875991  0.41029633  1.0
  F  F2866  1  0.70570602  0.56966900  0.41029633  1.0
  F  F2867  1  0.70570602  0.66057809  0.41029633  1.0
  F  F2868  1  0.70570602  0.75148718  0.41029633  1.0
  F  F2869  1  0.70570602  0.84239628  0.41029633  1.0
  F  F2870  1  0.70570602  0.93330537  0.41029633  1.0
  F  F2871  1  0.79661511  0.02421446  0.41029633  1.0
  F  F2872  1  0.79661511  0.11512355  0.41029633  1.0
  F  F2873  1  0.79661511  0.20603264  0.41029633  1.0
  F  F2874  1  0.79661511  0.29694173  0.41029633  1.0
  F  F2875  1  0.79661511  0.38785082  0.41029633  1.0
  F  F2876  1  0.79661511  0.47875991  0.41029633  1.0
  F  F2877  1  0.79661511  0.56966900  0.41029633  1.0
  F  F2878  1  0.79661511  0.66057809  0.41029633  1.0
  F  F2879  1  0.79661511  0.75148718  0.41029633  1.0
  F  F2880  1  0.79661511  0.84239628  0.41029633  1.0
  F  F2881  1  0.79661511  0.93330537  0.41029633  1.0
  F  F2882  1  0.88752420  0.02421446  0.41029633  1.0
  F  F2883  1  0.88752420  0.11512355  0.41029633  1.0
  F  F2884  1  0.88752420  0.20603264  0.41029633  1.0
  F  F2885  1  0.88752420  0.29694173  0.41029633  1.0
  F  F2886  1  0.88752420  0.38785082  0.41029633  1.0
  F  F2887  1  0.88752420  0.47875991  0.41029633  1.0
  F  F2888  1  0.88752420  0.56966900  0.41029633  1.0
  F  F2889  1  0.88752420  0.66057809  0.41029633  1.0
  F  F2890  1  0.88752420  0.75148718  0.41029633  1.0
  F  F2891  1  0.88752420  0.84239628  0.41029633  1.0
  F  F2892  1  0.88752420  0.93330537  0.41029633  1.0
  F  F2893  1  0.97843329  0.02421446  0.41029633  1.0
  F  F2894  1  0.97843329  0.11512355  0.41029633  1.0
  F  F2895  1  0.97843329  0.20603264  0.41029633  1.0
  F  F2896  1  0.97843329  0.29694173  0.41029633  1.0
  F  F2897  1  0.97843329  0.38785082  0.41029633  1.0
  F  F2898  1  0.97843329  0.47875991  0.41029633  1.0
  F  F2899  1  0.97843329  0.56966900  0.41029633  1.0
  F  F2900  1  0.97843329  0.66057809  0.41029633  1.0
  F  F2901  1  0.97843329  0.75148718  0.41029633  1.0
  F  F2902  1  0.97843329  0.84239628  0.41029633  1.0
  F  F2903  1  0.97843329  0.93330537  0.41029633  1.0
  F  F2904  1  0.06914445  0.06639475  0.48156969  1.0
  F  F2905  1  0.06914445  0.15730384  0.48156969  1.0
  F  F2906  1  0.06914445  0.24821293  0.48156969  1.0
  F  F2907  1  0.06914445  0.33912202  0.48156969  1.0
  F  F2908  1  0.06914445  0.43003112  0.48156969  1.0
  F  F2909  1  0.06914445  0.52094021  0.48156969  1.0
  F  F2910  1  0.06914445  0.61184930  0.48156969  1.0
  F  F2911  1  0.06914445  0.70275839  0.48156969  1.0
  F  F2912  1  0.06914445  0.79366748  0.48156969  1.0
  F  F2913  1  0.06914445  0.88457657  0.48156969  1.0
  F  F2914  1  0.06914445  0.97548566  0.48156969  1.0
  F  F2915  1  0.16005354  0.06639475  0.48156969  1.0
  F  F2916  1  0.16005354  0.15730384  0.48156969  1.0
  F  F2917  1  0.16005354  0.24821293  0.48156969  1.0
  F  F2918  1  0.16005354  0.33912202  0.48156969  1.0
  F  F2919  1  0.16005354  0.43003112  0.48156969  1.0
  F  F2920  1  0.16005354  0.52094021  0.48156969  1.0
  F  F2921  1  0.16005354  0.61184930  0.48156969  1.0
  F  F2922  1  0.16005354  0.70275839  0.48156969  1.0
  F  F2923  1  0.16005354  0.79366748  0.48156969  1.0
  F  F2924  1  0.16005354  0.88457657  0.48156969  1.0
  F  F2925  1  0.16005354  0.97548566  0.48156969  1.0
  F  F2926  1  0.25096263  0.06639475  0.48156969  1.0
  F  F2927  1  0.25096263  0.15730384  0.48156969  1.0
  F  F2928  1  0.25096263  0.24821293  0.48156969  1.0
  F  F2929  1  0.25096263  0.33912202  0.48156969  1.0
  F  F2930  1  0.25096263  0.43003112  0.48156969  1.0
  F  F2931  1  0.25096263  0.52094021  0.48156969  1.0
  F  F2932  1  0.25096263  0.61184930  0.48156969  1.0
  F  F2933  1  0.25096263  0.70275839  0.48156969  1.0
  F  F2934  1  0.25096263  0.79366748  0.48156969  1.0
  F  F2935  1  0.25096263  0.88457657  0.48156969  1.0
  F  F2936  1  0.25096263  0.97548566  0.48156969  1.0
  F  F2937  1  0.34187172  0.06639475  0.48156969  1.0
  F  F2938  1  0.34187172  0.15730384  0.48156969  1.0
  F  F2939  1  0.34187172  0.24821293  0.48156969  1.0
  F  F2940  1  0.34187172  0.33912202  0.48156969  1.0
  F  F2941  1  0.34187172  0.43003112  0.48156969  1.0
  F  F2942  1  0.34187172  0.52094021  0.48156969  1.0
  F  F2943  1  0.34187172  0.61184930  0.48156969  1.0
  F  F2944  1  0.34187172  0.70275839  0.48156969  1.0
  F  F2945  1  0.34187172  0.79366748  0.48156969  1.0
  F  F2946  1  0.34187172  0.88457657  0.48156969  1.0
  F  F2947  1  0.34187172  0.97548566  0.48156969  1.0
  F  F2948  1  0.43278081  0.06639475  0.48156969  1.0
  F  F2949  1  0.43278081  0.15730384  0.48156969  1.0
  F  F2950  1  0.43278081  0.24821293  0.48156969  1.0
  F  F2951  1  0.43278081  0.33912202  0.48156969  1.0
  F  F2952  1  0.43278081  0.43003112  0.48156969  1.0
  F  F2953  1  0.43278081  0.52094021  0.48156969  1.0
  F  F2954  1  0.43278081  0.61184930  0.48156969  1.0
  F  F2955  1  0.43278081  0.70275839  0.48156969  1.0
  F  F2956  1  0.43278081  0.79366748  0.48156969  1.0
  F  F2957  1  0.43278081  0.88457657  0.48156969  1.0
  F  F2958  1  0.43278081  0.97548566  0.48156969  1.0
  F  F2959  1  0.52368990  0.06639475  0.48156969  1.0
  F  F2960  1  0.52368990  0.15730384  0.48156969  1.0
  F  F2961  1  0.52368990  0.24821293  0.48156969  1.0
  F  F2962  1  0.52368990  0.33912202  0.48156969  1.0
  F  F2963  1  0.52368990  0.43003112  0.48156969  1.0
  F  F2964  1  0.52368990  0.52094021  0.48156969  1.0
  F  F2965  1  0.52368990  0.61184930  0.48156969  1.0
  F  F2966  1  0.52368990  0.70275839  0.48156969  1.0
  F  F2967  1  0.52368990  0.79366748  0.48156969  1.0
  F  F2968  1  0.52368990  0.88457657  0.48156969  1.0
  F  F2969  1  0.52368990  0.97548566  0.48156969  1.0
  F  F2970  1  0.61459899  0.06639475  0.48156969  1.0
  F  F2971  1  0.61459899  0.15730384  0.48156969  1.0
  F  F2972  1  0.61459899  0.24821293  0.48156969  1.0
  F  F2973  1  0.61459899  0.33912202  0.48156969  1.0
  F  F2974  1  0.61459899  0.43003112  0.48156969  1.0
  F  F2975  1  0.61459899  0.52094021  0.48156969  1.0
  F  F2976  1  0.61459899  0.61184930  0.48156969  1.0
  F  F2977  1  0.61459899  0.70275839  0.48156969  1.0
  F  F2978  1  0.61459899  0.79366748  0.48156969  1.0
  F  F2979  1  0.61459899  0.88457657  0.48156969  1.0
  F  F2980  1  0.61459899  0.97548566  0.48156969  1.0
  F  F2981  1  0.70550809  0.06639475  0.48156969  1.0
  F  F2982  1  0.70550809  0.15730384  0.48156969  1.0
  F  F2983  1  0.70550808  0.24821293  0.48156969  1.0
  F  F2984  1  0.70550809  0.33912202  0.48156969  1.0
  F  F2985  1  0.70550809  0.43003112  0.48156969  1.0
  F  F2986  1  0.70550809  0.52094021  0.48156969  1.0
  F  F2987  1  0.70550809  0.61184930  0.48156969  1.0
  F  F2988  1  0.70550809  0.70275839  0.48156969  1.0
  F  F2989  1  0.70550809  0.79366748  0.48156969  1.0
  F  F2990  1  0.70550809  0.88457657  0.48156969  1.0
  F  F2991  1  0.70550809  0.97548566  0.48156969  1.0
  F  F2992  1  0.79641718  0.06639475  0.48156969  1.0
  F  F2993  1  0.79641718  0.15730384  0.48156969  1.0
  F  F2994  1  0.79641718  0.24821293  0.48156969  1.0
  F  F2995  1  0.79641718  0.33912202  0.48156969  1.0
  F  F2996  1  0.79641718  0.43003112  0.48156969  1.0
  F  F2997  1  0.79641718  0.52094021  0.48156969  1.0
  F  F2998  1  0.79641718  0.61184930  0.48156969  1.0
  F  F2999  1  0.79641718  0.70275839  0.48156969  1.0
  F  F3000  1  0.79641718  0.79366748  0.48156969  1.0
  F  F3001  1  0.79641718  0.88457657  0.48156969  1.0
  F  F3002  1  0.79641718  0.97548566  0.48156969  1.0
  F  F3003  1  0.88732627  0.06639475  0.48156969  1.0
  F  F3004  1  0.88732627  0.15730384  0.48156969  1.0
  F  F3005  1  0.88732627  0.24821293  0.48156969  1.0
  F  F3006  1  0.88732627  0.33912202  0.48156969  1.0
  F  F3007  1  0.88732627  0.43003112  0.48156969  1.0
  F  F3008  1  0.88732627  0.52094021  0.48156969  1.0
  F  F3009  1  0.88732627  0.61184930  0.48156969  1.0
  F  F3010  1  0.88732627  0.70275839  0.48156969  1.0
  F  F3011  1  0.88732627  0.79366748  0.48156969  1.0
  F  F3012  1  0.88732627  0.88457657  0.48156969  1.0
  F  F3013  1  0.88732627  0.97548566  0.48156969  1.0
  F  F3014  1  0.97823536  0.06639475  0.48156969  1.0
  F  F3015  1  0.97823536  0.15730384  0.48156969  1.0
  F  F3016  1  0.97823536  0.24821293  0.48156969  1.0
  F  F3017  1  0.97823536  0.33912202  0.48156969  1.0
  F  F3018  1  0.97823536  0.43003112  0.48156969  1.0
  F  F3019  1  0.97823536  0.52094021  0.48156969  1.0
  F  F3020  1  0.97823536  0.61184930  0.48156969  1.0
  F  F3021  1  0.97823536  0.70275839  0.48156969  1.0
  F  F3022  1  0.97823536  0.79366748  0.48156969  1.0
  F  F3023  1  0.97823536  0.88457657  0.48156969  1.0
  F  F3024  1  0.97823536  0.97548566  0.48156969  1.0
  F  F3025  1  0.02368990  0.02094021  0.41014112  1.0
  F  F3026  1  0.02368990  0.11184930  0.41014112  1.0
  F  F3027  1  0.02368990  0.20275839  0.41014112  1.0
  F  F3028  1  0.02368990  0.29366748  0.41014112  1.0
  F  F3029  1  0.02368990  0.38457657  0.41014112  1.0
  F  F3030  1  0.02368990  0.47548566  0.41014112  1.0
  F  F3031  1  0.02368990  0.56639475  0.41014112  1.0
  F  F3032  1  0.02368990  0.65730384  0.41014112  1.0
  F  F3033  1  0.02368990  0.74821293  0.41014112  1.0
  F  F3034  1  0.02368990  0.83912202  0.41014112  1.0
  F  F3035  1  0.02368990  0.93003112  0.41014112  1.0
  F  F3036  1  0.11459899  0.02094021  0.41014112  1.0
  F  F3037  1  0.11459899  0.11184930  0.41014112  1.0
  F  F3038  1  0.11459899  0.20275839  0.41014112  1.0
  F  F3039  1  0.11459899  0.29366748  0.41014112  1.0
  F  F3040  1  0.11459899  0.38457657  0.41014112  1.0
  F  F3041  1  0.11459899  0.47548566  0.41014112  1.0
  F  F3042  1  0.11459899  0.56639475  0.41014112  1.0
  F  F3043  1  0.11459899  0.65730384  0.41014112  1.0
  F  F3044  1  0.11459899  0.74821293  0.41014112  1.0
  F  F3045  1  0.11459899  0.83912202  0.41014112  1.0
  F  F3046  1  0.11459899  0.93003112  0.41014112  1.0
  F  F3047  1  0.20550808  0.02094021  0.41014112  1.0
  F  F3048  1  0.20550809  0.11184930  0.41014112  1.0
  F  F3049  1  0.20550809  0.20275839  0.41014112  1.0
  F  F3050  1  0.20550808  0.29366748  0.41014112  1.0
  F  F3051  1  0.20550809  0.38457657  0.41014112  1.0
  F  F3052  1  0.20550809  0.47548566  0.41014112  1.0
  F  F3053  1  0.20550809  0.56639475  0.41014112  1.0
  F  F3054  1  0.20550809  0.65730384  0.41014112  1.0
  F  F3055  1  0.20550809  0.74821293  0.41014112  1.0
  F  F3056  1  0.20550809  0.83912202  0.41014112  1.0
  F  F3057  1  0.20550809  0.93003112  0.41014112  1.0
  F  F3058  1  0.29641718  0.02094021  0.41014112  1.0
  F  F3059  1  0.29641718  0.11184930  0.41014112  1.0
  F  F3060  1  0.29641718  0.20275839  0.41014112  1.0
  F  F3061  1  0.29641718  0.29366748  0.41014112  1.0
  F  F3062  1  0.29641718  0.38457657  0.41014112  1.0
  F  F3063  1  0.29641718  0.47548566  0.41014112  1.0
  F  F3064  1  0.29641718  0.56639475  0.41014112  1.0
  F  F3065  1  0.29641718  0.65730384  0.41014112  1.0
  F  F3066  1  0.29641718  0.74821293  0.41014112  1.0
  F  F3067  1  0.29641718  0.83912202  0.41014112  1.0
  F  F3068  1  0.29641718  0.93003112  0.41014112  1.0
  F  F3069  1  0.38732627  0.02094021  0.41014112  1.0
  F  F3070  1  0.38732627  0.11184930  0.41014112  1.0
  F  F3071  1  0.38732627  0.20275839  0.41014112  1.0
  F  F3072  1  0.38732627  0.29366748  0.41014112  1.0
  F  F3073  1  0.38732627  0.38457657  0.41014112  1.0
  F  F3074  1  0.38732627  0.47548566  0.41014112  1.0
  F  F3075  1  0.38732627  0.56639475  0.41014112  1.0
  F  F3076  1  0.38732627  0.65730384  0.41014112  1.0
  F  F3077  1  0.38732627  0.74821293  0.41014112  1.0
  F  F3078  1  0.38732627  0.83912202  0.41014112  1.0
  F  F3079  1  0.38732627  0.93003112  0.41014112  1.0
  F  F3080  1  0.47823536  0.02094021  0.41014112  1.0
  F  F3081  1  0.47823536  0.11184930  0.41014112  1.0
  F  F3082  1  0.47823536  0.20275839  0.41014112  1.0
  F  F3083  1  0.47823536  0.29366748  0.41014112  1.0
  F  F3084  1  0.47823536  0.38457657  0.41014112  1.0
  F  F3085  1  0.47823536  0.47548566  0.41014112  1.0
  F  F3086  1  0.47823536  0.56639475  0.41014112  1.0
  F  F3087  1  0.47823536  0.65730384  0.41014112  1.0
  F  F3088  1  0.47823536  0.74821293  0.41014112  1.0
  F  F3089  1  0.47823536  0.83912202  0.41014112  1.0
  F  F3090  1  0.47823536  0.93003112  0.41014112  1.0
  F  F3091  1  0.56914445  0.02094021  0.41014112  1.0
  F  F3092  1  0.56914445  0.11184930  0.41014112  1.0
  F  F3093  1  0.56914445  0.20275839  0.41014112  1.0
  F  F3094  1  0.56914445  0.29366748  0.41014112  1.0
  F  F3095  1  0.56914445  0.38457657  0.41014112  1.0
  F  F3096  1  0.56914445  0.47548566  0.41014112  1.0
  F  F3097  1  0.56914445  0.56639475  0.41014112  1.0
  F  F3098  1  0.56914445  0.65730384  0.41014112  1.0
  F  F3099  1  0.56914445  0.74821293  0.41014112  1.0
  F  F3100  1  0.56914445  0.83912202  0.41014112  1.0
  F  F3101  1  0.56914445  0.93003112  0.41014112  1.0
  F  F3102  1  0.66005354  0.02094021  0.41014112  1.0
  F  F3103  1  0.66005354  0.11184930  0.41014112  1.0
  F  F3104  1  0.66005354  0.20275839  0.41014112  1.0
  F  F3105  1  0.66005354  0.29366748  0.41014112  1.0
  F  F3106  1  0.66005354  0.38457657  0.41014112  1.0
  F  F3107  1  0.66005354  0.47548566  0.41014112  1.0
  F  F3108  1  0.66005354  0.56639475  0.41014112  1.0
  F  F3109  1  0.66005354  0.65730384  0.41014112  1.0
  F  F3110  1  0.66005354  0.74821293  0.41014112  1.0
  F  F3111  1  0.66005354  0.83912202  0.41014112  1.0
  F  F3112  1  0.66005354  0.93003112  0.41014112  1.0
  F  F3113  1  0.75096263  0.02094021  0.41014112  1.0
  F  F3114  1  0.75096263  0.11184930  0.41014112  1.0
  F  F3115  1  0.75096263  0.20275839  0.41014112  1.0
  F  F3116  1  0.75096263  0.29366748  0.41014112  1.0
  F  F3117  1  0.75096263  0.38457657  0.41014112  1.0
  F  F3118  1  0.75096263  0.47548566  0.41014112  1.0
  F  F3119  1  0.75096263  0.56639475  0.41014112  1.0
  F  F3120  1  0.75096263  0.65730384  0.41014112  1.0
  F  F3121  1  0.75096263  0.74821293  0.41014112  1.0
  F  F3122  1  0.75096263  0.83912202  0.41014112  1.0
  F  F3123  1  0.75096263  0.93003112  0.41014112  1.0
  F  F3124  1  0.84187172  0.02094021  0.41014112  1.0
  F  F3125  1  0.84187172  0.11184930  0.41014112  1.0
  F  F3126  1  0.84187172  0.20275839  0.41014112  1.0
  F  F3127  1  0.84187172  0.29366748  0.41014112  1.0
  F  F3128  1  0.84187172  0.38457657  0.41014112  1.0
  F  F3129  1  0.84187172  0.47548566  0.41014112  1.0
  F  F3130  1  0.84187172  0.56639475  0.41014112  1.0
  F  F3131  1  0.84187172  0.65730384  0.41014112  1.0
  F  F3132  1  0.84187172  0.74821293  0.41014112  1.0
  F  F3133  1  0.84187172  0.83912202  0.41014112  1.0
  F  F3134  1  0.84187172  0.93003112  0.41014112  1.0
  F  F3135  1  0.93278081  0.02094021  0.41014112  1.0
  F  F3136  1  0.93278081  0.11184930  0.41014112  1.0
  F  F3137  1  0.93278081  0.20275839  0.41014112  1.0
  F  F3138  1  0.93278081  0.29366748  0.41014112  1.0
  F  F3139  1  0.93278081  0.38457657  0.41014112  1.0
  F  F3140  1  0.93278081  0.47548566  0.41014112  1.0
  F  F3141  1  0.93278081  0.56639475  0.41014112  1.0
  F  F3142  1  0.93278081  0.65730384  0.41014112  1.0
  F  F3143  1  0.93278081  0.74821293  0.41014112  1.0
  F  F3144  1  0.93278081  0.83912202  0.41014112  1.0
  F  F3145  1  0.93278081  0.93003112  0.41014112  1.0
  F  F3146  1  0.06702125  0.02124009  0.34281258  1.0
  F  F3147  1  0.06702125  0.11214918  0.34281258  1.0
  F  F3148  1  0.06702125  0.20305827  0.34281258  1.0
  F  F3149  1  0.06702125  0.29396736  0.34281258  1.0
  F  F3150  1  0.06702125  0.38487645  0.34281258  1.0
  F  F3151  1  0.06702125  0.47578554  0.34281258  1.0
  F  F3152  1  0.06702125  0.56669463  0.34281258  1.0
  F  F3153  1  0.06702125  0.65760372  0.34281258  1.0
  F  F3154  1  0.06702125  0.74851281  0.34281258  1.0
  F  F3155  1  0.06702125  0.83942191  0.34281258  1.0
  F  F3156  1  0.06702125  0.93033100  0.34281258  1.0
  F  F3157  1  0.15793034  0.02124009  0.34281258  1.0
  F  F3158  1  0.15793034  0.11214918  0.34281258  1.0
  F  F3159  1  0.15793034  0.20305827  0.34281258  1.0
  F  F3160  1  0.15793034  0.29396736  0.34281258  1.0
  F  F3161  1  0.15793034  0.38487645  0.34281258  1.0
  F  F3162  1  0.15793034  0.47578554  0.34281258  1.0
  F  F3163  1  0.15793034  0.56669463  0.34281258  1.0
  F  F3164  1  0.15793034  0.65760372  0.34281258  1.0
  F  F3165  1  0.15793034  0.74851281  0.34281258  1.0
  F  F3166  1  0.15793034  0.83942191  0.34281258  1.0
  F  F3167  1  0.15793034  0.93033100  0.34281258  1.0
  F  F3168  1  0.24883943  0.02124009  0.34281258  1.0
  F  F3169  1  0.24883943  0.11214918  0.34281258  1.0
  F  F3170  1  0.24883943  0.20305827  0.34281258  1.0
  F  F3171  1  0.24883943  0.29396736  0.34281258  1.0
  F  F3172  1  0.24883943  0.38487645  0.34281258  1.0
  F  F3173  1  0.24883943  0.47578554  0.34281258  1.0
  F  F3174  1  0.24883943  0.56669463  0.34281258  1.0
  F  F3175  1  0.24883943  0.65760372  0.34281258  1.0
  F  F3176  1  0.24883943  0.74851281  0.34281258  1.0
  F  F3177  1  0.24883943  0.83942191  0.34281258  1.0
  F  F3178  1  0.24883943  0.93033100  0.34281258  1.0
  F  F3179  1  0.33974852  0.02124009  0.34281258  1.0
  F  F3180  1  0.33974852  0.11214918  0.34281258  1.0
  F  F3181  1  0.33974852  0.20305827  0.34281258  1.0
  F  F3182  1  0.33974852  0.29396736  0.34281258  1.0
  F  F3183  1  0.33974852  0.38487645  0.34281258  1.0
  F  F3184  1  0.33974853  0.47578554  0.34281258  1.0
  F  F3185  1  0.33974852  0.56669463  0.34281258  1.0
  F  F3186  1  0.33974852  0.65760372  0.34281258  1.0
  F  F3187  1  0.33974852  0.74851281  0.34281258  1.0
  F  F3188  1  0.33974852  0.83942191  0.34281258  1.0
  F  F3189  1  0.33974852  0.93033100  0.34281258  1.0
  F  F3190  1  0.43065762  0.02124009  0.34281258  1.0
  F  F3191  1  0.43065762  0.11214918  0.34281258  1.0
  F  F3192  1  0.43065762  0.20305827  0.34281258  1.0
  F  F3193  1  0.43065762  0.29396736  0.34281258  1.0
  F  F3194  1  0.43065762  0.38487645  0.34281258  1.0
  F  F3195  1  0.43065762  0.47578554  0.34281258  1.0
  F  F3196  1  0.43065762  0.56669463  0.34281258  1.0
  F  F3197  1  0.43065762  0.65760372  0.34281258  1.0
  F  F3198  1  0.43065762  0.74851281  0.34281258  1.0
  F  F3199  1  0.43065762  0.83942191  0.34281258  1.0
  F  F3200  1  0.43065762  0.93033100  0.34281258  1.0
  F  F3201  1  0.52156671  0.02124009  0.34281258  1.0
  F  F3202  1  0.52156671  0.11214918  0.34281258  1.0
  F  F3203  1  0.52156671  0.20305827  0.34281258  1.0
  F  F3204  1  0.52156671  0.29396736  0.34281258  1.0
  F  F3205  1  0.52156671  0.38487645  0.34281258  1.0
  F  F3206  1  0.52156671  0.47578554  0.34281258  1.0
  F  F3207  1  0.52156671  0.56669463  0.34281258  1.0
  F  F3208  1  0.52156671  0.65760372  0.34281258  1.0
  F  F3209  1  0.52156671  0.74851281  0.34281258  1.0
  F  F3210  1  0.52156671  0.83942191  0.34281258  1.0
  F  F3211  1  0.52156671  0.93033100  0.34281258  1.0
  F  F3212  1  0.61247580  0.02124009  0.34281258  1.0
  F  F3213  1  0.61247580  0.11214918  0.34281258  1.0
  F  F3214  1  0.61247580  0.20305827  0.34281258  1.0
  F  F3215  1  0.61247580  0.29396736  0.34281258  1.0
  F  F3216  1  0.61247580  0.38487645  0.34281258  1.0
  F  F3217  1  0.61247580  0.47578554  0.34281258  1.0
  F  F3218  1  0.61247580  0.56669463  0.34281258  1.0
  F  F3219  1  0.61247580  0.65760372  0.34281258  1.0
  F  F3220  1  0.61247580  0.74851281  0.34281258  1.0
  F  F3221  1  0.61247580  0.83942191  0.34281258  1.0
  F  F3222  1  0.61247580  0.93033100  0.34281258  1.0
  F  F3223  1  0.70338489  0.02124009  0.34281258  1.0
  F  F3224  1  0.70338489  0.11214918  0.34281258  1.0
  F  F3225  1  0.70338489  0.20305827  0.34281258  1.0
  F  F3226  1  0.70338489  0.29396736  0.34281258  1.0
  F  F3227  1  0.70338489  0.38487645  0.34281258  1.0
  F  F3228  1  0.70338489  0.47578554  0.34281258  1.0
  F  F3229  1  0.70338489  0.56669463  0.34281258  1.0
  F  F3230  1  0.70338489  0.65760372  0.34281258  1.0
  F  F3231  1  0.70338489  0.74851281  0.34281258  1.0
  F  F3232  1  0.70338489  0.83942191  0.34281258  1.0
  F  F3233  1  0.70338489  0.93033100  0.34281258  1.0
  F  F3234  1  0.79429398  0.02124009  0.34281258  1.0
  F  F3235  1  0.79429398  0.11214918  0.34281258  1.0
  F  F3236  1  0.79429398  0.20305827  0.34281258  1.0
  F  F3237  1  0.79429398  0.29396736  0.34281258  1.0
  F  F3238  1  0.79429398  0.38487645  0.34281258  1.0
  F  F3239  1  0.79429398  0.47578554  0.34281258  1.0
  F  F3240  1  0.79429398  0.56669463  0.34281258  1.0
  F  F3241  1  0.79429398  0.65760372  0.34281258  1.0
  F  F3242  1  0.79429398  0.74851281  0.34281258  1.0
  F  F3243  1  0.79429398  0.83942191  0.34281258  1.0
  F  F3244  1  0.79429398  0.93033100  0.34281258  1.0
  F  F3245  1  0.88520307  0.02124009  0.34281258  1.0
  F  F3246  1  0.88520307  0.11214918  0.34281258  1.0
  F  F3247  1  0.88520307  0.20305827  0.34281258  1.0
  F  F3248  1  0.88520307  0.29396736  0.34281258  1.0
  F  F3249  1  0.88520307  0.38487645  0.34281258  1.0
  F  F3250  1  0.88520307  0.47578554  0.34281258  1.0
  F  F3251  1  0.88520307  0.56669463  0.34281258  1.0
  F  F3252  1  0.88520307  0.65760372  0.34281258  1.0
  F  F3253  1  0.88520307  0.74851281  0.34281258  1.0
  F  F3254  1  0.88520307  0.83942191  0.34281258  1.0
  F  F3255  1  0.88520307  0.93033100  0.34281258  1.0
  F  F3256  1  0.97611216  0.02124009  0.34281258  1.0
  F  F3257  1  0.97611216  0.11214918  0.34281258  1.0
  F  F3258  1  0.97611216  0.20305827  0.34281258  1.0
  F  F3259  1  0.97611216  0.29396736  0.34281258  1.0
  F  F3260  1  0.97611216  0.38487645  0.34281258  1.0
  F  F3261  1  0.97611216  0.47578554  0.34281258  1.0
  F  F3262  1  0.97611216  0.56669463  0.34281258  1.0
  F  F3263  1  0.97611216  0.65760372  0.34281258  1.0
  F  F3264  1  0.97611216  0.74851281  0.34281258  1.0
  F  F3265  1  0.97611216  0.83942191  0.34281258  1.0
  F  F3266  1  0.97611216  0.93033100  0.34281258  1.0
  F  F3267  1  0.02156671  0.06669463  0.41424116  1.0
  F  F3268  1  0.02156671  0.15760372  0.41424116  1.0
  F  F3269  1  0.02156671  0.24851281  0.41424116  1.0
  F  F3270  1  0.02156671  0.33942191  0.41424116  1.0
  F  F3271  1  0.02156671  0.43033100  0.41424116  1.0
  F  F3272  1  0.02156671  0.52124009  0.41424116  1.0
  F  F3273  1  0.02156671  0.61214918  0.41424116  1.0
  F  F3274  1  0.02156671  0.70305827  0.41424116  1.0
  F  F3275  1  0.02156671  0.79396736  0.41424116  1.0
  F  F3276  1  0.02156671  0.88487645  0.41424116  1.0
  F  F3277  1  0.02156671  0.97578554  0.41424116  1.0
  F  F3278  1  0.11247580  0.06669463  0.41424116  1.0
  F  F3279  1  0.11247580  0.15760372  0.41424116  1.0
  F  F3280  1  0.11247580  0.24851281  0.41424116  1.0
  F  F3281  1  0.11247580  0.33942191  0.41424116  1.0
  F  F3282  1  0.11247580  0.43033100  0.41424116  1.0
  F  F3283  1  0.11247580  0.52124009  0.41424116  1.0
  F  F3284  1  0.11247580  0.61214918  0.41424116  1.0
  F  F3285  1  0.11247580  0.70305827  0.41424116  1.0
  F  F3286  1  0.11247580  0.79396736  0.41424116  1.0
  F  F3287  1  0.11247580  0.88487645  0.41424116  1.0
  F  F3288  1  0.11247580  0.97578554  0.41424116  1.0
  F  F3289  1  0.20338489  0.06669463  0.41424116  1.0
  F  F3290  1  0.20338489  0.15760372  0.41424116  1.0
  F  F3291  1  0.20338489  0.24851281  0.41424116  1.0
  F  F3292  1  0.20338489  0.33942191  0.41424116  1.0
  F  F3293  1  0.20338489  0.43033100  0.41424116  1.0
  F  F3294  1  0.20338489  0.52124009  0.41424116  1.0
  F  F3295  1  0.20338489  0.61214918  0.41424116  1.0
  F  F3296  1  0.20338489  0.70305827  0.41424116  1.0
  F  F3297  1  0.20338489  0.79396736  0.41424116  1.0
  F  F3298  1  0.20338489  0.88487645  0.41424116  1.0
  F  F3299  1  0.20338489  0.97578554  0.41424116  1.0
  F  F3300  1  0.29429398  0.06669463  0.41424116  1.0
  F  F3301  1  0.29429398  0.15760372  0.41424116  1.0
  F  F3302  1  0.29429398  0.24851281  0.41424116  1.0
  F  F3303  1  0.29429398  0.33942191  0.41424116  1.0
  F  F3304  1  0.29429398  0.43033100  0.41424116  1.0
  F  F3305  1  0.29429398  0.52124009  0.41424116  1.0
  F  F3306  1  0.29429398  0.61214918  0.41424116  1.0
  F  F3307  1  0.29429398  0.70305827  0.41424116  1.0
  F  F3308  1  0.29429398  0.79396736  0.41424116  1.0
  F  F3309  1  0.29429398  0.88487645  0.41424116  1.0
  F  F3310  1  0.29429398  0.97578554  0.41424116  1.0
  F  F3311  1  0.38520307  0.06669463  0.41424116  1.0
  F  F3312  1  0.38520307  0.15760372  0.41424116  1.0
  F  F3313  1  0.38520307  0.24851281  0.41424116  1.0
  F  F3314  1  0.38520307  0.33942191  0.41424116  1.0
  F  F3315  1  0.38520307  0.43033100  0.41424116  1.0
  F  F3316  1  0.38520307  0.52124009  0.41424116  1.0
  F  F3317  1  0.38520307  0.61214918  0.41424116  1.0
  F  F3318  1  0.38520307  0.70305827  0.41424116  1.0
  F  F3319  1  0.38520307  0.79396736  0.41424116  1.0
  F  F3320  1  0.38520307  0.88487645  0.41424116  1.0
  F  F3321  1  0.38520307  0.97578554  0.41424116  1.0
  F  F3322  1  0.47611216  0.06669463  0.41424116  1.0
  F  F3323  1  0.47611216  0.15760372  0.41424116  1.0
  F  F3324  1  0.47611216  0.24851281  0.41424116  1.0
  F  F3325  1  0.47611216  0.33942191  0.41424116  1.0
  F  F3326  1  0.47611216  0.43033100  0.41424116  1.0
  F  F3327  1  0.47611216  0.52124009  0.41424116  1.0
  F  F3328  1  0.47611216  0.61214918  0.41424116  1.0
  F  F3329  1  0.47611216  0.70305827  0.41424116  1.0
  F  F3330  1  0.47611216  0.79396736  0.41424116  1.0
  F  F3331  1  0.47611216  0.88487645  0.41424116  1.0
  F  F3332  1  0.47611216  0.97578554  0.41424116  1.0
  F  F3333  1  0.56702125  0.06669463  0.41424116  1.0
  F  F3334  1  0.56702125  0.15760372  0.41424116  1.0
  F  F3335  1  0.56702125  0.24851281  0.41424116  1.0
  F  F3336  1  0.56702125  0.33942191  0.41424116  1.0
  F  F3337  1  0.56702125  0.43033100  0.41424116  1.0
  F  F3338  1  0.56702125  0.52124009  0.41424116  1.0
  F  F3339  1  0.56702125  0.61214918  0.41424116  1.0
  F  F3340  1  0.56702125  0.70305827  0.41424116  1.0
  F  F3341  1  0.56702125  0.79396736  0.41424116  1.0
  F  F3342  1  0.56702125  0.88487645  0.41424116  1.0
  F  F3343  1  0.56702125  0.97578554  0.41424116  1.0
  F  F3344  1  0.65793034  0.06669463  0.41424116  1.0
  F  F3345  1  0.65793034  0.15760372  0.41424116  1.0
  F  F3346  1  0.65793034  0.24851281  0.41424116  1.0
  F  F3347  1  0.65793034  0.33942191  0.41424116  1.0
  F  F3348  1  0.65793034  0.43033100  0.41424116  1.0
  F  F3349  1  0.65793034  0.52124009  0.41424116  1.0
  F  F3350  1  0.65793034  0.61214918  0.41424116  1.0
  F  F3351  1  0.65793034  0.70305827  0.41424116  1.0
  F  F3352  1  0.65793034  0.79396736  0.41424116  1.0
  F  F3353  1  0.65793034  0.88487645  0.41424116  1.0
  F  F3354  1  0.65793034  0.97578554  0.41424116  1.0
  F  F3355  1  0.74883943  0.06669463  0.41424116  1.0
  F  F3356  1  0.74883943  0.15760372  0.41424116  1.0
  F  F3357  1  0.74883943  0.24851281  0.41424116  1.0
  F  F3358  1  0.74883943  0.33942191  0.41424116  1.0
  F  F3359  1  0.74883943  0.43033100  0.41424116  1.0
  F  F3360  1  0.74883943  0.52124009  0.41424116  1.0
  F  F3361  1  0.74883943  0.61214918  0.41424116  1.0
  F  F3362  1  0.74883943  0.70305827  0.41424116  1.0
  F  F3363  1  0.74883943  0.79396736  0.41424116  1.0
  F  F3364  1  0.74883943  0.88487645  0.41424116  1.0
  F  F3365  1  0.74883943  0.97578554  0.41424116  1.0
  F  F3366  1  0.83974852  0.06669463  0.41424116  1.0
  F  F3367  1  0.83974852  0.15760372  0.41424116  1.0
  F  F3368  1  0.83974852  0.24851281  0.41424116  1.0
  F  F3369  1  0.83974852  0.33942191  0.41424116  1.0
  F  F3370  1  0.83974852  0.43033100  0.41424116  1.0
  F  F3371  1  0.83974852  0.52124009  0.41424116  1.0
  F  F3372  1  0.83974852  0.61214918  0.41424116  1.0
  F  F3373  1  0.83974852  0.70305827  0.41424116  1.0
  F  F3374  1  0.83974852  0.79396736  0.41424116  1.0
  F  F3375  1  0.83974852  0.88487645  0.41424116  1.0
  F  F3376  1  0.83974852  0.97578554  0.41424116  1.0
  F  F3377  1  0.93065762  0.06669463  0.41424116  1.0
  F  F3378  1  0.93065762  0.15760372  0.41424116  1.0
  F  F3379  1  0.93065762  0.24851281  0.41424116  1.0
  F  F3380  1  0.93065762  0.33942191  0.41424116  1.0
  F  F3381  1  0.93065762  0.43033100  0.41424116  1.0
  F  F3382  1  0.93065762  0.52124009  0.41424116  1.0
  F  F3383  1  0.93065762  0.61214918  0.41424116  1.0
  F  F3384  1  0.93065762  0.70305827  0.41424116  1.0
  F  F3385  1  0.93065762  0.79396736  0.41424116  1.0
  F  F3386  1  0.93065762  0.88487645  0.41424116  1.0
  F  F3387  1  0.93065762  0.97578554  0.41424116  1.0
  F  F3388  1  0.04530487  0.04828615  0.37702970  1.0
  F  F3389  1  0.04530487  0.13919524  0.37702970  1.0
  F  F3390  1  0.04530487  0.23010433  0.37702970  1.0
  F  F3391  1  0.04530487  0.32101342  0.37702970  1.0
  F  F3392  1  0.04530487  0.41192251  0.37702970  1.0
  F  F3393  1  0.04530487  0.50283160  0.37702970  1.0
  F  F3394  1  0.04530487  0.59374070  0.37702970  1.0
  F  F3395  1  0.04530487  0.68464979  0.37702970  1.0
  F  F3396  1  0.04530487  0.77555888  0.37702970  1.0
  F  F3397  1  0.04530487  0.86646797  0.37702970  1.0
  F  F3398  1  0.04530487  0.95737706  0.37702970  1.0
  F  F3399  1  0.13621396  0.04828615  0.37702970  1.0
  F  F3400  1  0.13621396  0.13919524  0.37702970  1.0
  F  F3401  1  0.13621396  0.23010433  0.37702970  1.0
  F  F3402  1  0.13621396  0.32101342  0.37702970  1.0
  F  F3403  1  0.13621396  0.41192251  0.37702970  1.0
  F  F3404  1  0.13621396  0.50283160  0.37702970  1.0
  F  F3405  1  0.13621396  0.59374070  0.37702970  1.0
  F  F3406  1  0.13621396  0.68464979  0.37702970  1.0
  F  F3407  1  0.13621396  0.77555888  0.37702970  1.0
  F  F3408  1  0.13621396  0.86646797  0.37702970  1.0
  F  F3409  1  0.13621396  0.95737706  0.37702970  1.0
  F  F3410  1  0.22712305  0.04828615  0.37702970  1.0
  F  F3411  1  0.22712305  0.13919524  0.37702970  1.0
  F  F3412  1  0.22712305  0.23010433  0.37702970  1.0
  F  F3413  1  0.22712305  0.32101342  0.37702970  1.0
  F  F3414  1  0.22712305  0.41192251  0.37702970  1.0
  F  F3415  1  0.22712305  0.50283160  0.37702970  1.0
  F  F3416  1  0.22712305  0.59374070  0.37702970  1.0
  F  F3417  1  0.22712305  0.68464979  0.37702970  1.0
  F  F3418  1  0.22712305  0.77555888  0.37702970  1.0
  F  F3419  1  0.22712305  0.86646797  0.37702970  1.0
  F  F3420  1  0.22712305  0.95737706  0.37702970  1.0
  F  F3421  1  0.31803214  0.04828615  0.37702970  1.0
  F  F3422  1  0.31803214  0.13919524  0.37702970  1.0
  F  F3423  1  0.31803214  0.23010433  0.37702970  1.0
  F  F3424  1  0.31803214  0.32101342  0.37702970  1.0
  F  F3425  1  0.31803214  0.41192251  0.37702970  1.0
  F  F3426  1  0.31803214  0.50283160  0.37702970  1.0
  F  F3427  1  0.31803214  0.59374070  0.37702970  1.0
  F  F3428  1  0.31803214  0.68464979  0.37702970  1.0
  F  F3429  1  0.31803214  0.77555888  0.37702970  1.0
  F  F3430  1  0.31803214  0.86646797  0.37702970  1.0
  F  F3431  1  0.31803214  0.95737706  0.37702970  1.0
  F  F3432  1  0.40894123  0.04828615  0.37702970  1.0
  F  F3433  1  0.40894123  0.13919524  0.37702970  1.0
  F  F3434  1  0.40894123  0.23010433  0.37702970  1.0
  F  F3435  1  0.40894123  0.32101342  0.37702970  1.0
  F  F3436  1  0.40894123  0.41192251  0.37702970  1.0
  F  F3437  1  0.40894123  0.50283160  0.37702970  1.0
  F  F3438  1  0.40894123  0.59374070  0.37702970  1.0
  F  F3439  1  0.40894123  0.68464979  0.37702970  1.0
  F  F3440  1  0.40894123  0.77555888  0.37702970  1.0
  F  F3441  1  0.40894123  0.86646797  0.37702970  1.0
  F  F3442  1  0.40894123  0.95737706  0.37702970  1.0
  F  F3443  1  0.49985032  0.04828615  0.37702970  1.0
  F  F3444  1  0.49985032  0.13919524  0.37702970  1.0
  F  F3445  1  0.49985032  0.23010433  0.37702970  1.0
  F  F3446  1  0.49985032  0.32101342  0.37702970  1.0
  F  F3447  1  0.49985032  0.41192251  0.37702970  1.0
  F  F3448  1  0.49985032  0.50283160  0.37702970  1.0
  F  F3449  1  0.49985032  0.59374070  0.37702970  1.0
  F  F3450  1  0.49985032  0.68464979  0.37702970  1.0
  F  F3451  1  0.49985032  0.77555888  0.37702970  1.0
  F  F3452  1  0.49985032  0.86646797  0.37702970  1.0
  F  F3453  1  0.49985032  0.95737706  0.37702970  1.0
  F  F3454  1  0.59075941  0.04828615  0.37702970  1.0
  F  F3455  1  0.59075941  0.13919524  0.37702970  1.0
  F  F3456  1  0.59075941  0.23010433  0.37702970  1.0
  F  F3457  1  0.59075941  0.32101342  0.37702970  1.0
  F  F3458  1  0.59075941  0.41192251  0.37702970  1.0
  F  F3459  1  0.59075941  0.50283160  0.37702970  1.0
  F  F3460  1  0.59075941  0.59374070  0.37702970  1.0
  F  F3461  1  0.59075941  0.68464979  0.37702970  1.0
  F  F3462  1  0.59075941  0.77555888  0.37702970  1.0
  F  F3463  1  0.59075941  0.86646797  0.37702970  1.0
  F  F3464  1  0.59075941  0.95737706  0.37702970  1.0
  F  F3465  1  0.68166850  0.04828615  0.37702970  1.0
  F  F3466  1  0.68166850  0.13919524  0.37702970  1.0
  F  F3467  1  0.68166850  0.23010433  0.37702970  1.0
  F  F3468  1  0.68166850  0.32101342  0.37702970  1.0
  F  F3469  1  0.68166850  0.41192251  0.37702970  1.0
  F  F3470  1  0.68166850  0.50283160  0.37702970  1.0
  F  F3471  1  0.68166850  0.59374070  0.37702970  1.0
  F  F3472  1  0.68166850  0.68464979  0.37702970  1.0
  F  F3473  1  0.68166850  0.77555888  0.37702970  1.0
  F  F3474  1  0.68166850  0.86646797  0.37702970  1.0
  F  F3475  1  0.68166850  0.95737706  0.37702970  1.0
  F  F3476  1  0.77257760  0.04828615  0.37702970  1.0
  F  F3477  1  0.77257760  0.13919524  0.37702970  1.0
  F  F3478  1  0.77257760  0.23010433  0.37702970  1.0
  F  F3479  1  0.77257760  0.32101342  0.37702970  1.0
  F  F3480  1  0.77257760  0.41192251  0.37702970  1.0
  F  F3481  1  0.77257760  0.50283160  0.37702970  1.0
  F  F3482  1  0.77257760  0.59374070  0.37702970  1.0
  F  F3483  1  0.77257760  0.68464979  0.37702970  1.0
  F  F3484  1  0.77257760  0.77555888  0.37702970  1.0
  F  F3485  1  0.77257760  0.86646797  0.37702970  1.0
  F  F3486  1  0.77257760  0.95737706  0.37702970  1.0
  F  F3487  1  0.86348669  0.04828615  0.37702970  1.0
  F  F3488  1  0.86348669  0.13919524  0.37702970  1.0
  F  F3489  1  0.86348669  0.23010433  0.37702970  1.0
  F  F3490  1  0.86348669  0.32101342  0.37702970  1.0
  F  F3491  1  0.86348669  0.41192251  0.37702970  1.0
  F  F3492  1  0.86348669  0.50283160  0.37702970  1.0
  F  F3493  1  0.86348669  0.59374070  0.37702970  1.0
  F  F3494  1  0.86348669  0.68464979  0.37702970  1.0
  F  F3495  1  0.86348669  0.77555888  0.37702970  1.0
  F  F3496  1  0.86348669  0.86646797  0.37702970  1.0
  F  F3497  1  0.86348669  0.95737706  0.37702970  1.0
  F  F3498  1  0.95439578  0.04828615  0.37702970  1.0
  F  F3499  1  0.95439578  0.13919524  0.37702970  1.0
  F  F3500  1  0.95439578  0.23010433  0.37702970  1.0
  F  F3501  1  0.95439578  0.32101342  0.37702970  1.0
  F  F3502  1  0.95439578  0.41192251  0.37702970  1.0
  F  F3503  1  0.95439578  0.50283160  0.37702970  1.0
  F  F3504  1  0.95439578  0.59374070  0.37702970  1.0
  F  F3505  1  0.95439578  0.68464979  0.37702970  1.0
  F  F3506  1  0.95439578  0.77555888  0.37702970  1.0
  F  F3507  1  0.95439578  0.86646797  0.37702970  1.0
  F  F3508  1  0.95439578  0.95737706  0.37702970  1.0
  F  F3509  1  0.09075941  0.00283160  0.44845827  1.0
  F  F3510  1  0.09075941  0.09374070  0.44845827  1.0
  F  F3511  1  0.09075941  0.18464979  0.44845827  1.0
  F  F3512  1  0.09075941  0.27555888  0.44845827  1.0
  F  F3513  1  0.09075941  0.36646797  0.44845827  1.0
  F  F3514  1  0.09075941  0.45737706  0.44845827  1.0
  F  F3515  1  0.09075941  0.54828615  0.44845827  1.0
  F  F3516  1  0.09075941  0.63919524  0.44845827  1.0
  F  F3517  1  0.09075941  0.73010433  0.44845827  1.0
  F  F3518  1  0.09075941  0.82101342  0.44845827  1.0
  F  F3519  1  0.09075941  0.91192251  0.44845827  1.0
  F  F3520  1  0.18166850  0.00283160  0.44845827  1.0
  F  F3521  1  0.18166850  0.09374070  0.44845827  1.0
  F  F3522  1  0.18166850  0.18464979  0.44845827  1.0
  F  F3523  1  0.18166850  0.27555888  0.44845827  1.0
  F  F3524  1  0.18166850  0.36646797  0.44845827  1.0
  F  F3525  1  0.18166850  0.45737706  0.44845827  1.0
  F  F3526  1  0.18166850  0.54828615  0.44845827  1.0
  F  F3527  1  0.18166850  0.63919524  0.44845827  1.0
  F  F3528  1  0.18166850  0.73010433  0.44845827  1.0
  F  F3529  1  0.18166850  0.82101342  0.44845827  1.0
  F  F3530  1  0.18166850  0.91192251  0.44845827  1.0
  F  F3531  1  0.27257760  0.00283160  0.44845827  1.0
  F  F3532  1  0.27257760  0.09374070  0.44845827  1.0
  F  F3533  1  0.27257760  0.18464979  0.44845827  1.0
  F  F3534  1  0.27257760  0.27555888  0.44845827  1.0
  F  F3535  1  0.27257760  0.36646797  0.44845827  1.0
  F  F3536  1  0.27257760  0.45737706  0.44845827  1.0
  F  F3537  1  0.27257760  0.54828615  0.44845827  1.0
  F  F3538  1  0.27257760  0.63919524  0.44845827  1.0
  F  F3539  1  0.27257760  0.73010433  0.44845827  1.0
  F  F3540  1  0.27257760  0.82101342  0.44845827  1.0
  F  F3541  1  0.27257760  0.91192251  0.44845827  1.0
  F  F3542  1  0.36348669  0.00283160  0.44845827  1.0
  F  F3543  1  0.36348669  0.09374070  0.44845827  1.0
  F  F3544  1  0.36348669  0.18464979  0.44845827  1.0
  F  F3545  1  0.36348669  0.27555888  0.44845827  1.0
  F  F3546  1  0.36348669  0.36646797  0.44845827  1.0
  F  F3547  1  0.36348669  0.45737706  0.44845827  1.0
  F  F3548  1  0.36348669  0.54828615  0.44845827  1.0
  F  F3549  1  0.36348669  0.63919524  0.44845827  1.0
  F  F3550  1  0.36348669  0.73010433  0.44845827  1.0
  F  F3551  1  0.36348669  0.82101342  0.44845827  1.0
  F  F3552  1  0.36348669  0.91192251  0.44845827  1.0
  F  F3553  1  0.45439578  0.00283160  0.44845827  1.0
  F  F3554  1  0.45439578  0.09374070  0.44845827  1.0
  F  F3555  1  0.45439578  0.18464979  0.44845827  1.0
  F  F3556  1  0.45439578  0.27555888  0.44845827  1.0
  F  F3557  1  0.45439578  0.36646797  0.44845827  1.0
  F  F3558  1  0.45439578  0.45737706  0.44845827  1.0
  F  F3559  1  0.45439578  0.54828615  0.44845827  1.0
  F  F3560  1  0.45439578  0.63919524  0.44845827  1.0
  F  F3561  1  0.45439578  0.73010433  0.44845827  1.0
  F  F3562  1  0.45439578  0.82101342  0.44845827  1.0
  F  F3563  1  0.45439578  0.91192251  0.44845827  1.0
  F  F3564  1  0.54530487  0.00283160  0.44845827  1.0
  F  F3565  1  0.54530487  0.09374070  0.44845827  1.0
  F  F3566  1  0.54530487  0.18464979  0.44845827  1.0
  F  F3567  1  0.54530487  0.27555888  0.44845827  1.0
  F  F3568  1  0.54530487  0.36646797  0.44845827  1.0
  F  F3569  1  0.54530487  0.45737706  0.44845827  1.0
  F  F3570  1  0.54530487  0.54828615  0.44845827  1.0
  F  F3571  1  0.54530487  0.63919524  0.44845827  1.0
  F  F3572  1  0.54530487  0.73010433  0.44845827  1.0
  F  F3573  1  0.54530487  0.82101342  0.44845827  1.0
  F  F3574  1  0.54530487  0.91192251  0.44845827  1.0
  F  F3575  1  0.63621396  0.00283160  0.44845827  1.0
  F  F3576  1  0.63621396  0.09374070  0.44845827  1.0
  F  F3577  1  0.63621396  0.18464979  0.44845827  1.0
  F  F3578  1  0.63621396  0.27555888  0.44845827  1.0
  F  F3579  1  0.63621396  0.36646797  0.44845827  1.0
  F  F3580  1  0.63621396  0.45737706  0.44845827  1.0
  F  F3581  1  0.63621396  0.54828615  0.44845827  1.0
  F  F3582  1  0.63621396  0.63919524  0.44845827  1.0
  F  F3583  1  0.63621396  0.73010433  0.44845827  1.0
  F  F3584  1  0.63621396  0.82101342  0.44845827  1.0
  F  F3585  1  0.63621396  0.91192251  0.44845827  1.0
  F  F3586  1  0.72712305  0.00283160  0.44845827  1.0
  F  F3587  1  0.72712305  0.09374070  0.44845827  1.0
  F  F3588  1  0.72712305  0.18464979  0.44845827  1.0
  F  F3589  1  0.72712305  0.27555888  0.44845827  1.0
  F  F3590  1  0.72712305  0.36646797  0.44845827  1.0
  F  F3591  1  0.72712305  0.45737706  0.44845827  1.0
  F  F3592  1  0.72712305  0.54828615  0.44845827  1.0
  F  F3593  1  0.72712305  0.63919524  0.44845827  1.0
  F  F3594  1  0.72712305  0.73010433  0.44845827  1.0
  F  F3595  1  0.72712305  0.82101342  0.44845827  1.0
  F  F3596  1  0.72712305  0.91192251  0.44845827  1.0
  F  F3597  1  0.81803214  0.00283160  0.44845827  1.0
  F  F3598  1  0.81803214  0.09374070  0.44845827  1.0
  F  F3599  1  0.81803214  0.18464979  0.44845827  1.0
  F  F3600  1  0.81803214  0.27555888  0.44845827  1.0
  F  F3601  1  0.81803214  0.36646797  0.44845827  1.0
  F  F3602  1  0.81803214  0.45737706  0.44845827  1.0
  F  F3603  1  0.81803214  0.54828615  0.44845827  1.0
  F  F3604  1  0.81803214  0.63919524  0.44845827  1.0
  F  F3605  1  0.81803214  0.73010433  0.44845827  1.0
  F  F3606  1  0.81803214  0.82101342  0.44845827  1.0
  F  F3607  1  0.81803214  0.91192251  0.44845827  1.0
  F  F3608  1  0.90894123  0.00283160  0.44845827  1.0
  F  F3609  1  0.90894123  0.09374070  0.44845827  1.0
  F  F3610  1  0.90894123  0.18464979  0.44845827  1.0
  F  F3611  1  0.90894123  0.27555888  0.44845827  1.0
  F  F3612  1  0.90894123  0.36646797  0.44845827  1.0
  F  F3613  1  0.90894123  0.45737706  0.44845827  1.0
  F  F3614  1  0.90894123  0.54828615  0.44845827  1.0
  F  F3615  1  0.90894123  0.63919524  0.44845827  1.0
  F  F3616  1  0.90894123  0.73010433  0.44845827  1.0
  F  F3617  1  0.90894123  0.82101342  0.44845827  1.0
  F  F3618  1  0.90894123  0.91192251  0.44845827  1.0
  F  F3619  1  0.99985032  0.00283160  0.44845827  1.0
  F  F3620  1  0.99985032  0.09374070  0.44845827  1.0
  F  F3621  1  0.99985032  0.18464979  0.44845827  1.0
  F  F3622  1  0.99985032  0.27555888  0.44845827  1.0
  F  F3623  1  0.99985032  0.36646797  0.44845827  1.0
  F  F3624  1  0.99985032  0.45737706  0.44845827  1.0
  F  F3625  1  0.99985032  0.54828615  0.44845827  1.0
  F  F3626  1  0.99985032  0.63919524  0.44845827  1.0
  F  F3627  1  0.99985032  0.73010433  0.44845827  1.0
  F  F3628  1  0.99985032  0.82101342  0.44845827  1.0
  F  F3629  1  0.99985032  0.91192251  0.44845827  1.0
  F  F3630  1  0.02176464  0.02451434  0.34296780  1.0
  F  F3631  1  0.02176464  0.11542343  0.34296780  1.0
  F  F3632  1  0.02176464  0.20633252  0.34296780  1.0
  F  F3633  1  0.02176464  0.29724161  0.34296780  1.0
  F  F3634  1  0.02176464  0.38815070  0.34296780  1.0
  F  F3635  1  0.02176464  0.47905979  0.34296780  1.0
  F  F3636  1  0.02176464  0.56996888  0.34296780  1.0
  F  F3637  1  0.02176464  0.66087798  0.34296780  1.0
  F  F3638  1  0.02176464  0.75178707  0.34296780  1.0
  F  F3639  1  0.02176464  0.84269616  0.34296780  1.0
  F  F3640  1  0.02176464  0.93360525  0.34296780  1.0
  F  F3641  1  0.11267373  0.02451434  0.34296780  1.0
  F  F3642  1  0.11267373  0.11542343  0.34296780  1.0
  F  F3643  1  0.11267373  0.20633252  0.34296780  1.0
  F  F3644  1  0.11267373  0.29724161  0.34296780  1.0
  F  F3645  1  0.11267373  0.38815070  0.34296780  1.0
  F  F3646  1  0.11267373  0.47905979  0.34296780  1.0
  F  F3647  1  0.11267373  0.56996888  0.34296780  1.0
  F  F3648  1  0.11267373  0.66087798  0.34296780  1.0
  F  F3649  1  0.11267373  0.75178707  0.34296780  1.0
  F  F3650  1  0.11267373  0.84269616  0.34296780  1.0
  F  F3651  1  0.11267373  0.93360525  0.34296780  1.0
  F  F3652  1  0.20358282  0.02451434  0.34296780  1.0
  F  F3653  1  0.20358282  0.11542343  0.34296780  1.0
  F  F3654  1  0.20358282  0.20633252  0.34296780  1.0
  F  F3655  1  0.20358282  0.29724161  0.34296780  1.0
  F  F3656  1  0.20358282  0.38815070  0.34296780  1.0
  F  F3657  1  0.20358282  0.47905979  0.34296780  1.0
  F  F3658  1  0.20358282  0.56996888  0.34296780  1.0
  F  F3659  1  0.20358282  0.66087798  0.34296780  1.0
  F  F3660  1  0.20358282  0.75178707  0.34296780  1.0
  F  F3661  1  0.20358282  0.84269616  0.34296780  1.0
  F  F3662  1  0.20358282  0.93360525  0.34296780  1.0
  F  F3663  1  0.29449191  0.02451434  0.34296780  1.0
  F  F3664  1  0.29449191  0.11542343  0.34296780  1.0
  F  F3665  1  0.29449191  0.20633252  0.34296780  1.0
  F  F3666  1  0.29449191  0.29724161  0.34296780  1.0
  F  F3667  1  0.29449191  0.38815070  0.34296780  1.0
  F  F3668  1  0.29449191  0.47905979  0.34296780  1.0
  F  F3669  1  0.29449191  0.56996888  0.34296780  1.0
  F  F3670  1  0.29449191  0.66087798  0.34296780  1.0
  F  F3671  1  0.29449191  0.75178707  0.34296780  1.0
  F  F3672  1  0.29449191  0.84269616  0.34296780  1.0
  F  F3673  1  0.29449191  0.93360525  0.34296780  1.0
  F  F3674  1  0.38540101  0.02451434  0.34296780  1.0
  F  F3675  1  0.38540101  0.11542343  0.34296780  1.0
  F  F3676  1  0.38540101  0.20633252  0.34296780  1.0
  F  F3677  1  0.38540101  0.29724161  0.34296780  1.0
  F  F3678  1  0.38540101  0.38815070  0.34296780  1.0
  F  F3679  1  0.38540101  0.47905979  0.34296780  1.0
  F  F3680  1  0.38540101  0.56996888  0.34296780  1.0
  F  F3681  1  0.38540101  0.66087798  0.34296780  1.0
  F  F3682  1  0.38540101  0.75178707  0.34296780  1.0
  F  F3683  1  0.38540101  0.84269616  0.34296780  1.0
  F  F3684  1  0.38540101  0.93360525  0.34296780  1.0
  F  F3685  1  0.47631010  0.02451434  0.34296780  1.0
  F  F3686  1  0.47631010  0.11542343  0.34296780  1.0
  F  F3687  1  0.47631010  0.20633252  0.34296780  1.0
  F  F3688  1  0.47631010  0.29724161  0.34296780  1.0
  F  F3689  1  0.47631010  0.38815070  0.34296780  1.0
  F  F3690  1  0.47631010  0.47905979  0.34296780  1.0
  F  F3691  1  0.47631010  0.56996888  0.34296780  1.0
  F  F3692  1  0.47631010  0.66087798  0.34296780  1.0
  F  F3693  1  0.47631010  0.75178707  0.34296780  1.0
  F  F3694  1  0.47631010  0.84269616  0.34296780  1.0
  F  F3695  1  0.47631010  0.93360525  0.34296780  1.0
  F  F3696  1  0.56721919  0.02451434  0.34296780  1.0
  F  F3697  1  0.56721919  0.11542343  0.34296780  1.0
  F  F3698  1  0.56721919  0.20633252  0.34296780  1.0
  F  F3699  1  0.56721919  0.29724161  0.34296780  1.0
  F  F3700  1  0.56721919  0.38815070  0.34296780  1.0
  F  F3701  1  0.56721919  0.47905979  0.34296780  1.0
  F  F3702  1  0.56721919  0.56996888  0.34296780  1.0
  F  F3703  1  0.56721919  0.66087798  0.34296780  1.0
  F  F3704  1  0.56721919  0.75178707  0.34296780  1.0
  F  F3705  1  0.56721919  0.84269616  0.34296780  1.0
  F  F3706  1  0.56721919  0.93360525  0.34296780  1.0
  F  F3707  1  0.65812828  0.02451434  0.34296780  1.0
  F  F3708  1  0.65812828  0.11542343  0.34296780  1.0
  F  F3709  1  0.65812828  0.20633252  0.34296780  1.0
  F  F3710  1  0.65812828  0.29724161  0.34296780  1.0
  F  F3711  1  0.65812828  0.38815070  0.34296780  1.0
  F  F3712  1  0.65812828  0.47905979  0.34296780  1.0
  F  F3713  1  0.65812828  0.56996888  0.34296780  1.0
  F  F3714  1  0.65812828  0.66087798  0.34296780  1.0
  F  F3715  1  0.65812828  0.75178707  0.34296780  1.0
  F  F3716  1  0.65812828  0.84269616  0.34296780  1.0
  F  F3717  1  0.65812828  0.93360525  0.34296780  1.0
  F  F3718  1  0.74903737  0.02451434  0.34296780  1.0
  F  F3719  1  0.74903737  0.11542343  0.34296780  1.0
  F  F3720  1  0.74903737  0.20633252  0.34296780  1.0
  F  F3721  1  0.74903737  0.29724161  0.34296780  1.0
  F  F3722  1  0.74903737  0.38815070  0.34296780  1.0
  F  F3723  1  0.74903737  0.47905979  0.34296780  1.0
  F  F3724  1  0.74903737  0.56996888  0.34296780  1.0
  F  F3725  1  0.74903737  0.66087798  0.34296780  1.0
  F  F3726  1  0.74903737  0.75178707  0.34296780  1.0
  F  F3727  1  0.74903737  0.84269616  0.34296780  1.0
  F  F3728  1  0.74903737  0.93360525  0.34296780  1.0
  F  F3729  1  0.83994646  0.02451434  0.34296780  1.0
  F  F3730  1  0.83994646  0.11542343  0.34296780  1.0
  F  F3731  1  0.83994646  0.20633252  0.34296780  1.0
  F  F3732  1  0.83994646  0.29724161  0.34296780  1.0
  F  F3733  1  0.83994646  0.38815070  0.34296780  1.0
  F  F3734  1  0.83994646  0.47905979  0.34296780  1.0
  F  F3735  1  0.83994646  0.56996888  0.34296780  1.0
  F  F3736  1  0.83994646  0.66087798  0.34296780  1.0
  F  F3737  1  0.83994646  0.75178707  0.34296780  1.0
  F  F3738  1  0.83994646  0.84269616  0.34296780  1.0
  F  F3739  1  0.83994646  0.93360525  0.34296780  1.0
  F  F3740  1  0.93085555  0.02451434  0.34296780  1.0
  F  F3741  1  0.93085555  0.11542343  0.34296780  1.0
  F  F3742  1  0.93085555  0.20633252  0.34296780  1.0
  F  F3743  1  0.93085555  0.29724161  0.34296780  1.0
  F  F3744  1  0.93085555  0.38815070  0.34296780  1.0
  F  F3745  1  0.93085555  0.47905979  0.34296780  1.0
  F  F3746  1  0.93085555  0.56996888  0.34296780  1.0
  F  F3747  1  0.93085555  0.66087798  0.34296780  1.0
  F  F3748  1  0.93085555  0.75178707  0.34296780  1.0
  F  F3749  1  0.93085555  0.84269616  0.34296780  1.0
  F  F3750  1  0.93085555  0.93360525  0.34296780  1.0
  F  F3751  1  0.06721919  0.06996888  0.41439637  1.0
  F  F3752  1  0.06721919  0.16087798  0.41439637  1.0
  F  F3753  1  0.06721919  0.25178707  0.41439637  1.0
  F  F3754  1  0.06721919  0.34269616  0.41439637  1.0
  F  F3755  1  0.06721919  0.43360525  0.41439637  1.0
  F  F3756  1  0.06721919  0.52451434  0.41439637  1.0
  F  F3757  1  0.06721919  0.61542343  0.41439637  1.0
  F  F3758  1  0.06721919  0.70633252  0.41439637  1.0
  F  F3759  1  0.06721919  0.79724161  0.41439637  1.0
  F  F3760  1  0.06721919  0.88815070  0.41439637  1.0
  F  F3761  1  0.06721919  0.97905979  0.41439637  1.0
  F  F3762  1  0.15812828  0.06996888  0.41439637  1.0
  F  F3763  1  0.15812828  0.16087798  0.41439637  1.0
  F  F3764  1  0.15812828  0.25178707  0.41439637  1.0
  F  F3765  1  0.15812828  0.34269616  0.41439637  1.0
  F  F3766  1  0.15812828  0.43360525  0.41439637  1.0
  F  F3767  1  0.15812828  0.52451434  0.41439637  1.0
  F  F3768  1  0.15812828  0.61542343  0.41439637  1.0
  F  F3769  1  0.15812828  0.70633252  0.41439637  1.0
  F  F3770  1  0.15812828  0.79724161  0.41439637  1.0
  F  F3771  1  0.15812828  0.88815070  0.41439637  1.0
  F  F3772  1  0.15812828  0.97905979  0.41439637  1.0
  F  F3773  1  0.24903737  0.06996888  0.41439637  1.0
  F  F3774  1  0.24903737  0.16087798  0.41439637  1.0
  F  F3775  1  0.24903737  0.25178707  0.41439637  1.0
  F  F3776  1  0.24903737  0.34269616  0.41439637  1.0
  F  F3777  1  0.24903737  0.43360525  0.41439637  1.0
  F  F3778  1  0.24903737  0.52451434  0.41439637  1.0
  F  F3779  1  0.24903737  0.61542343  0.41439637  1.0
  F  F3780  1  0.24903737  0.70633252  0.41439637  1.0
  F  F3781  1  0.24903737  0.79724161  0.41439637  1.0
  F  F3782  1  0.24903737  0.88815070  0.41439637  1.0
  F  F3783  1  0.24903737  0.97905979  0.41439637  1.0
  F  F3784  1  0.33994646  0.06996888  0.41439637  1.0
  F  F3785  1  0.33994646  0.16087798  0.41439637  1.0
  F  F3786  1  0.33994646  0.25178707  0.41439637  1.0
  F  F3787  1  0.33994646  0.34269616  0.41439637  1.0
  F  F3788  1  0.33994646  0.43360525  0.41439637  1.0
  F  F3789  1  0.33994646  0.52451434  0.41439637  1.0
  F  F3790  1  0.33994646  0.61542343  0.41439637  1.0
  F  F3791  1  0.33994646  0.70633252  0.41439637  1.0
  F  F3792  1  0.33994646  0.79724161  0.41439637  1.0
  F  F3793  1  0.33994646  0.88815070  0.41439637  1.0
  F  F3794  1  0.33994646  0.97905979  0.41439637  1.0
  F  F3795  1  0.43085555  0.06996888  0.41439637  1.0
  F  F3796  1  0.43085555  0.16087798  0.41439637  1.0
  F  F3797  1  0.43085555  0.25178707  0.41439637  1.0
  F  F3798  1  0.43085555  0.34269616  0.41439637  1.0
  F  F3799  1  0.43085555  0.43360525  0.41439637  1.0
  F  F3800  1  0.43085555  0.52451434  0.41439637  1.0
  F  F3801  1  0.43085555  0.61542343  0.41439637  1.0
  F  F3802  1  0.43085555  0.70633252  0.41439637  1.0
  F  F3803  1  0.43085555  0.79724161  0.41439637  1.0
  F  F3804  1  0.43085555  0.88815070  0.41439637  1.0
  F  F3805  1  0.43085555  0.97905979  0.41439637  1.0
  F  F3806  1  0.52176464  0.06996888  0.41439637  1.0
  F  F3807  1  0.52176464  0.16087798  0.41439637  1.0
  F  F3808  1  0.52176464  0.25178707  0.41439637  1.0
  F  F3809  1  0.52176464  0.34269616  0.41439637  1.0
  F  F3810  1  0.52176464  0.43360525  0.41439637  1.0
  F  F3811  1  0.52176464  0.52451434  0.41439637  1.0
  F  F3812  1  0.52176464  0.61542343  0.41439637  1.0
  F  F3813  1  0.52176464  0.70633252  0.41439637  1.0
  F  F3814  1  0.52176464  0.79724161  0.41439637  1.0
  F  F3815  1  0.52176464  0.88815070  0.41439637  1.0
  F  F3816  1  0.52176464  0.97905979  0.41439637  1.0
  F  F3817  1  0.61267373  0.06996888  0.41439637  1.0
  F  F3818  1  0.61267373  0.16087798  0.41439637  1.0
  F  F3819  1  0.61267373  0.25178707  0.41439637  1.0
  F  F3820  1  0.61267373  0.34269616  0.41439637  1.0
  F  F3821  1  0.61267373  0.43360525  0.41439637  1.0
  F  F3822  1  0.61267373  0.52451434  0.41439637  1.0
  F  F3823  1  0.61267373  0.61542343  0.41439637  1.0
  F  F3824  1  0.61267373  0.70633252  0.41439637  1.0
  F  F3825  1  0.61267373  0.79724161  0.41439637  1.0
  F  F3826  1  0.61267373  0.88815070  0.41439637  1.0
  F  F3827  1  0.61267373  0.97905979  0.41439637  1.0
  F  F3828  1  0.70358282  0.06996888  0.41439637  1.0
  F  F3829  1  0.70358282  0.16087798  0.41439637  1.0
  F  F3830  1  0.70358282  0.25178707  0.41439637  1.0
  F  F3831  1  0.70358282  0.34269616  0.41439637  1.0
  F  F3832  1  0.70358282  0.43360525  0.41439637  1.0
  F  F3833  1  0.70358282  0.52451434  0.41439637  1.0
  F  F3834  1  0.70358282  0.61542343  0.41439637  1.0
  F  F3835  1  0.70358282  0.70633252  0.41439637  1.0
  F  F3836  1  0.70358282  0.79724161  0.41439637  1.0
  F  F3837  1  0.70358282  0.88815070  0.41439637  1.0
  F  F3838  1  0.70358282  0.97905979  0.41439637  1.0
  F  F3839  1  0.79449192  0.06996888  0.41439637  1.0
  F  F3840  1  0.79449191  0.16087798  0.41439637  1.0
  F  F3841  1  0.79449191  0.25178707  0.41439637  1.0
  F  F3842  1  0.79449191  0.34269616  0.41439637  1.0
  F  F3843  1  0.79449192  0.43360525  0.41439637  1.0
  F  F3844  1  0.79449191  0.52451434  0.41439637  1.0
  F  F3845  1  0.79449191  0.61542343  0.41439637  1.0
  F  F3846  1  0.79449191  0.70633252  0.41439637  1.0
  F  F3847  1  0.79449191  0.79724161  0.41439637  1.0
  F  F3848  1  0.79449192  0.88815070  0.41439637  1.0
  F  F3849  1  0.79449191  0.97905979  0.41439637  1.0
  F  F3850  1  0.88540101  0.06996888  0.41439637  1.0
  F  F3851  1  0.88540101  0.16087798  0.41439637  1.0
  F  F3852  1  0.88540101  0.25178707  0.41439637  1.0
  F  F3853  1  0.88540101  0.34269616  0.41439637  1.0
  F  F3854  1  0.88540101  0.43360525  0.41439637  1.0
  F  F3855  1  0.88540101  0.52451434  0.41439637  1.0
  F  F3856  1  0.88540101  0.61542343  0.41439637  1.0
  F  F3857  1  0.88540101  0.70633252  0.41439637  1.0
  F  F3858  1  0.88540101  0.79724161  0.41439637  1.0
  F  F3859  1  0.88540101  0.88815070  0.41439637  1.0
  F  F3860  1  0.88540101  0.97905979  0.41439637  1.0
  F  F3861  1  0.97631010  0.06996888  0.41439637  1.0
  F  F3862  1  0.97631010  0.16087798  0.41439637  1.0
  F  F3863  1  0.97631010  0.25178707  0.41439637  1.0
  F  F3864  1  0.97631010  0.34269616  0.41439637  1.0
  F  F3865  1  0.97631010  0.43360525  0.41439637  1.0
  F  F3866  1  0.97631010  0.52451434  0.41439637  1.0
  F  F3867  1  0.97631010  0.61542343  0.41439637  1.0
  F  F3868  1  0.97631010  0.70633252  0.41439637  1.0
  F  F3869  1  0.97631010  0.79724161  0.41439637  1.0
  F  F3870  1  0.97631010  0.88815070  0.41439637  1.0
  F  F3871  1  0.97631010  0.97905979  0.41439637  1.0
  F  F3872  1  0.04560422  0.04262294  0.44750778  1.0
  F  F3873  1  0.04560422  0.13353203  0.44750778  1.0
  F  F3874  1  0.04560422  0.22444112  0.44750778  1.0
  F  F3875  1  0.04560422  0.31535021  0.44750778  1.0
  F  F3876  1  0.04560422  0.40625930  0.44750778  1.0
  F  F3877  1  0.04560422  0.49716840  0.44750778  1.0
  F  F3878  1  0.04560422  0.58807749  0.44750778  1.0
  F  F3879  1  0.04560422  0.67898658  0.44750778  1.0
  F  F3880  1  0.04560422  0.76989567  0.44750778  1.0
  F  F3881  1  0.04560422  0.86080476  0.44750778  1.0
  F  F3882  1  0.04560422  0.95171385  0.44750778  1.0
  F  F3883  1  0.13651331  0.04262294  0.44750778  1.0
  F  F3884  1  0.13651331  0.13353203  0.44750778  1.0
  F  F3885  1  0.13651331  0.22444112  0.44750778  1.0
  F  F3886  1  0.13651331  0.31535021  0.44750778  1.0
  F  F3887  1  0.13651331  0.40625930  0.44750778  1.0
  F  F3888  1  0.13651331  0.49716840  0.44750778  1.0
  F  F3889  1  0.13651331  0.58807749  0.44750778  1.0
  F  F3890  1  0.13651331  0.67898658  0.44750778  1.0
  F  F3891  1  0.13651331  0.76989567  0.44750778  1.0
  F  F3892  1  0.13651331  0.86080476  0.44750778  1.0
  F  F3893  1  0.13651331  0.95171385  0.44750778  1.0
  F  F3894  1  0.22742240  0.04262294  0.44750778  1.0
  F  F3895  1  0.22742240  0.13353203  0.44750778  1.0
  F  F3896  1  0.22742240  0.22444112  0.44750778  1.0
  F  F3897  1  0.22742240  0.31535021  0.44750778  1.0
  F  F3898  1  0.22742240  0.40625930  0.44750778  1.0
  F  F3899  1  0.22742240  0.49716840  0.44750778  1.0
  F  F3900  1  0.22742240  0.58807749  0.44750778  1.0
  F  F3901  1  0.22742240  0.67898658  0.44750778  1.0
  F  F3902  1  0.22742240  0.76989567  0.44750778  1.0
  F  F3903  1  0.22742240  0.86080476  0.44750778  1.0
  F  F3904  1  0.22742240  0.95171385  0.44750778  1.0
  F  F3905  1  0.31833150  0.04262294  0.44750778  1.0
  F  F3906  1  0.31833150  0.13353203  0.44750778  1.0
  F  F3907  1  0.31833150  0.22444112  0.44750778  1.0
  F  F3908  1  0.31833150  0.31535021  0.44750778  1.0
  F  F3909  1  0.31833150  0.40625930  0.44750778  1.0
  F  F3910  1  0.31833150  0.49716840  0.44750778  1.0
  F  F3911  1  0.31833150  0.58807749  0.44750778  1.0
  F  F3912  1  0.31833150  0.67898658  0.44750778  1.0
  F  F3913  1  0.31833150  0.76989567  0.44750778  1.0
  F  F3914  1  0.31833150  0.86080476  0.44750778  1.0
  F  F3915  1  0.31833150  0.95171385  0.44750778  1.0
  F  F3916  1  0.40924059  0.04262294  0.44750778  1.0
  F  F3917  1  0.40924059  0.13353203  0.44750778  1.0
  F  F3918  1  0.40924059  0.22444112  0.44750778  1.0
  F  F3919  1  0.40924059  0.31535021  0.44750778  1.0
  F  F3920  1  0.40924059  0.40625930  0.44750778  1.0
  F  F3921  1  0.40924059  0.49716840  0.44750778  1.0
  F  F3922  1  0.40924059  0.58807749  0.44750778  1.0
  F  F3923  1  0.40924059  0.67898658  0.44750778  1.0
  F  F3924  1  0.40924059  0.76989567  0.44750778  1.0
  F  F3925  1  0.40924059  0.86080476  0.44750778  1.0
  F  F3926  1  0.40924059  0.95171385  0.44750778  1.0
  F  F3927  1  0.50014968  0.04262294  0.44750778  1.0
  F  F3928  1  0.50014968  0.13353203  0.44750778  1.0
  F  F3929  1  0.50014968  0.22444112  0.44750778  1.0
  F  F3930  1  0.50014968  0.31535021  0.44750778  1.0
  F  F3931  1  0.50014968  0.40625930  0.44750778  1.0
  F  F3932  1  0.50014968  0.49716840  0.44750778  1.0
  F  F3933  1  0.50014968  0.58807749  0.44750778  1.0
  F  F3934  1  0.50014968  0.67898658  0.44750778  1.0
  F  F3935  1  0.50014968  0.76989567  0.44750778  1.0
  F  F3936  1  0.50014968  0.86080476  0.44750778  1.0
  F  F3937  1  0.50014968  0.95171385  0.44750778  1.0
  F  F3938  1  0.59105877  0.04262294  0.44750778  1.0
  F  F3939  1  0.59105877  0.13353203  0.44750778  1.0
  F  F3940  1  0.59105877  0.22444112  0.44750778  1.0
  F  F3941  1  0.59105877  0.31535021  0.44750778  1.0
  F  F3942  1  0.59105877  0.40625930  0.44750778  1.0
  F  F3943  1  0.59105877  0.49716840  0.44750778  1.0
  F  F3944  1  0.59105877  0.58807749  0.44750778  1.0
  F  F3945  1  0.59105877  0.67898658  0.44750778  1.0
  F  F3946  1  0.59105877  0.76989567  0.44750778  1.0
  F  F3947  1  0.59105877  0.86080476  0.44750778  1.0
  F  F3948  1  0.59105877  0.95171385  0.44750778  1.0
  F  F3949  1  0.68196786  0.04262294  0.44750778  1.0
  F  F3950  1  0.68196786  0.13353203  0.44750778  1.0
  F  F3951  1  0.68196786  0.22444112  0.44750778  1.0
  F  F3952  1  0.68196786  0.31535021  0.44750778  1.0
  F  F3953  1  0.68196786  0.40625930  0.44750778  1.0
  F  F3954  1  0.68196786  0.49716840  0.44750778  1.0
  F  F3955  1  0.68196786  0.58807749  0.44750778  1.0
  F  F3956  1  0.68196786  0.67898658  0.44750778  1.0
  F  F3957  1  0.68196786  0.76989567  0.44750778  1.0
  F  F3958  1  0.68196786  0.86080476  0.44750778  1.0
  F  F3959  1  0.68196786  0.95171385  0.44750778  1.0
  F  F3960  1  0.77287695  0.04262294  0.44750778  1.0
  F  F3961  1  0.77287695  0.13353203  0.44750778  1.0
  F  F3962  1  0.77287695  0.22444112  0.44750778  1.0
  F  F3963  1  0.77287695  0.31535021  0.44750778  1.0
  F  F3964  1  0.77287695  0.40625930  0.44750778  1.0
  F  F3965  1  0.77287695  0.49716840  0.44750778  1.0
  F  F3966  1  0.77287695  0.58807749  0.44750778  1.0
  F  F3967  1  0.77287695  0.67898658  0.44750778  1.0
  F  F3968  1  0.77287695  0.76989567  0.44750778  1.0
  F  F3969  1  0.77287695  0.86080476  0.44750778  1.0
  F  F3970  1  0.77287695  0.95171385  0.44750778  1.0
  F  F3971  1  0.86378604  0.04262294  0.44750778  1.0
  F  F3972  1  0.86378604  0.13353203  0.44750778  1.0
  F  F3973  1  0.86378604  0.22444112  0.44750778  1.0
  F  F3974  1  0.86378604  0.31535021  0.44750778  1.0
  F  F3975  1  0.86378604  0.40625930  0.44750778  1.0
  F  F3976  1  0.86378604  0.49716840  0.44750778  1.0
  F  F3977  1  0.86378604  0.58807749  0.44750778  1.0
  F  F3978  1  0.86378604  0.67898658  0.44750778  1.0
  F  F3979  1  0.86378604  0.76989567  0.44750778  1.0
  F  F3980  1  0.86378604  0.86080476  0.44750778  1.0
  F  F3981  1  0.86378604  0.95171385  0.44750778  1.0
  F  F3982  1  0.95469513  0.04262294  0.44750778  1.0
  F  F3983  1  0.95469513  0.13353203  0.44750778  1.0
  F  F3984  1  0.95469513  0.22444112  0.44750778  1.0
  F  F3985  1  0.95469513  0.31535021  0.44750778  1.0
  F  F3986  1  0.95469513  0.40625930  0.44750778  1.0
  F  F3987  1  0.95469513  0.49716840  0.44750778  1.0
  F  F3988  1  0.95469513  0.58807749  0.44750778  1.0
  F  F3989  1  0.95469513  0.67898658  0.44750778  1.0
  F  F3990  1  0.95469513  0.76989567  0.44750778  1.0
  F  F3991  1  0.95469513  0.86080476  0.44750778  1.0
  F  F3992  1  0.95469513  0.95171385  0.44750778  1.0
  F  F3993  1  0.00014968  0.08807749  0.37607921  1.0
  F  F3994  1  0.00014968  0.17898658  0.37607921  1.0
  F  F3995  1  0.00014968  0.26989567  0.37607921  1.0
  F  F3996  1  0.00014968  0.36080476  0.37607921  1.0
  F  F3997  1  0.00014968  0.45171385  0.37607921  1.0
  F  F3998  1  0.00014968  0.54262294  0.37607921  1.0
  F  F3999  1  0.00014968  0.63353203  0.37607921  1.0
  F  F4000  1  0.00014968  0.72444112  0.37607921  1.0
  F  F4001  1  0.00014968  0.81535021  0.37607921  1.0
  F  F4002  1  0.00014968  0.90625930  0.37607921  1.0
  F  F4003  1  0.00014968  0.99716840  0.37607921  1.0
  F  F4004  1  0.09105877  0.08807749  0.37607921  1.0
  F  F4005  1  0.09105877  0.17898658  0.37607921  1.0
  F  F4006  1  0.09105877  0.26989567  0.37607921  1.0
  F  F4007  1  0.09105877  0.36080476  0.37607921  1.0
  F  F4008  1  0.09105877  0.45171385  0.37607921  1.0
  F  F4009  1  0.09105877  0.54262294  0.37607921  1.0
  F  F4010  1  0.09105877  0.63353203  0.37607921  1.0
  F  F4011  1  0.09105877  0.72444112  0.37607921  1.0
  F  F4012  1  0.09105877  0.81535021  0.37607921  1.0
  F  F4013  1  0.09105877  0.90625930  0.37607921  1.0
  F  F4014  1  0.09105877  0.99716840  0.37607921  1.0
  F  F4015  1  0.18196786  0.08807749  0.37607921  1.0
  F  F4016  1  0.18196786  0.17898658  0.37607921  1.0
  F  F4017  1  0.18196786  0.26989567  0.37607921  1.0
  F  F4018  1  0.18196786  0.36080476  0.37607921  1.0
  F  F4019  1  0.18196786  0.45171385  0.37607921  1.0
  F  F4020  1  0.18196786  0.54262294  0.37607921  1.0
  F  F4021  1  0.18196786  0.63353203  0.37607921  1.0
  F  F4022  1  0.18196786  0.72444112  0.37607921  1.0
  F  F4023  1  0.18196786  0.81535021  0.37607921  1.0
  F  F4024  1  0.18196786  0.90625930  0.37607921  1.0
  F  F4025  1  0.18196786  0.99716840  0.37607921  1.0
  F  F4026  1  0.27287695  0.08807749  0.37607921  1.0
  F  F4027  1  0.27287695  0.17898658  0.37607921  1.0
  F  F4028  1  0.27287695  0.26989567  0.37607921  1.0
  F  F4029  1  0.27287695  0.36080476  0.37607921  1.0
  F  F4030  1  0.27287695  0.45171385  0.37607921  1.0
  F  F4031  1  0.27287695  0.54262294  0.37607921  1.0
  F  F4032  1  0.27287695  0.63353203  0.37607921  1.0
  F  F4033  1  0.27287695  0.72444112  0.37607921  1.0
  F  F4034  1  0.27287695  0.81535021  0.37607921  1.0
  F  F4035  1  0.27287695  0.90625930  0.37607921  1.0
  F  F4036  1  0.27287695  0.99716840  0.37607921  1.0
  F  F4037  1  0.36378604  0.08807749  0.37607921  1.0
  F  F4038  1  0.36378604  0.17898658  0.37607921  1.0
  F  F4039  1  0.36378604  0.26989567  0.37607921  1.0
  F  F4040  1  0.36378604  0.36080476  0.37607921  1.0
  F  F4041  1  0.36378604  0.45171385  0.37607921  1.0
  F  F4042  1  0.36378604  0.54262294  0.37607921  1.0
  F  F4043  1  0.36378604  0.63353203  0.37607921  1.0
  F  F4044  1  0.36378604  0.72444112  0.37607921  1.0
  F  F4045  1  0.36378604  0.81535021  0.37607921  1.0
  F  F4046  1  0.36378604  0.90625930  0.37607921  1.0
  F  F4047  1  0.36378604  0.99716840  0.37607921  1.0
  F  F4048  1  0.45469513  0.08807749  0.37607921  1.0
  F  F4049  1  0.45469513  0.17898658  0.37607921  1.0
  F  F4050  1  0.45469513  0.26989567  0.37607921  1.0
  F  F4051  1  0.45469513  0.36080476  0.37607921  1.0
  F  F4052  1  0.45469513  0.45171385  0.37607921  1.0
  F  F4053  1  0.45469513  0.54262294  0.37607921  1.0
  F  F4054  1  0.45469513  0.63353203  0.37607921  1.0
  F  F4055  1  0.45469513  0.72444112  0.37607921  1.0
  F  F4056  1  0.45469513  0.81535021  0.37607921  1.0
  F  F4057  1  0.45469513  0.90625930  0.37607921  1.0
  F  F4058  1  0.45469513  0.99716840  0.37607921  1.0
  F  F4059  1  0.54560422  0.08807749  0.37607921  1.0
  F  F4060  1  0.54560422  0.17898658  0.37607921  1.0
  F  F4061  1  0.54560422  0.26989567  0.37607921  1.0
  F  F4062  1  0.54560422  0.36080476  0.37607921  1.0
  F  F4063  1  0.54560422  0.45171385  0.37607921  1.0
  F  F4064  1  0.54560422  0.54262294  0.37607921  1.0
  F  F4065  1  0.54560422  0.63353203  0.37607921  1.0
  F  F4066  1  0.54560422  0.72444112  0.37607921  1.0
  F  F4067  1  0.54560422  0.81535021  0.37607921  1.0
  F  F4068  1  0.54560422  0.90625930  0.37607921  1.0
  F  F4069  1  0.54560422  0.99716840  0.37607921  1.0
  F  F4070  1  0.63651331  0.08807749  0.37607921  1.0
  F  F4071  1  0.63651331  0.17898658  0.37607921  1.0
  F  F4072  1  0.63651331  0.26989567  0.37607921  1.0
  F  F4073  1  0.63651331  0.36080476  0.37607921  1.0
  F  F4074  1  0.63651331  0.45171385  0.37607921  1.0
  F  F4075  1  0.63651331  0.54262294  0.37607921  1.0
  F  F4076  1  0.63651331  0.63353203  0.37607921  1.0
  F  F4077  1  0.63651331  0.72444112  0.37607921  1.0
  F  F4078  1  0.63651331  0.81535021  0.37607921  1.0
  F  F4079  1  0.63651331  0.90625930  0.37607921  1.0
  F  F4080  1  0.63651331  0.99716840  0.37607921  1.0
  F  F4081  1  0.72742240  0.08807749  0.37607921  1.0
  F  F4082  1  0.72742240  0.17898658  0.37607921  1.0
  F  F4083  1  0.72742240  0.26989567  0.37607921  1.0
  F  F4084  1  0.72742240  0.36080476  0.37607921  1.0
  F  F4085  1  0.72742240  0.45171385  0.37607921  1.0
  F  F4086  1  0.72742240  0.54262294  0.37607921  1.0
  F  F4087  1  0.72742240  0.63353203  0.37607921  1.0
  F  F4088  1  0.72742240  0.72444112  0.37607921  1.0
  F  F4089  1  0.72742240  0.81535021  0.37607921  1.0
  F  F4090  1  0.72742240  0.90625930  0.37607921  1.0
  F  F4091  1  0.72742240  0.99716840  0.37607921  1.0
  F  F4092  1  0.81833150  0.08807749  0.37607921  1.0
  F  F4093  1  0.81833150  0.17898658  0.37607921  1.0
  F  F4094  1  0.81833150  0.26989567  0.37607921  1.0
  F  F4095  1  0.81833150  0.36080476  0.37607921  1.0
  F  F4096  1  0.81833150  0.45171385  0.37607921  1.0
  F  F4097  1  0.81833150  0.54262294  0.37607921  1.0
  F  F4098  1  0.81833150  0.63353203  0.37607921  1.0
  F  F4099  1  0.81833150  0.72444112  0.37607921  1.0
  F  F4100  1  0.81833150  0.81535021  0.37607921  1.0
  F  F4101  1  0.81833150  0.90625930  0.37607921  1.0
  F  F4102  1  0.81833150  0.99716840  0.37607921  1.0
  F  F4103  1  0.90924059  0.08807749  0.37607921  1.0
  F  F4104  1  0.90924059  0.17898658  0.37607921  1.0
  F  F4105  1  0.90924059  0.26989567  0.37607921  1.0
  F  F4106  1  0.90924059  0.36080476  0.37607921  1.0
  F  F4107  1  0.90924059  0.45171385  0.37607921  1.0
  F  F4108  1  0.90924059  0.54262294  0.37607921  1.0
  F  F4109  1  0.90924059  0.63353203  0.37607921  1.0
  F  F4110  1  0.90924059  0.72444112  0.37607921  1.0
  F  F4111  1  0.90924059  0.81535021  0.37607921  1.0
  F  F4112  1  0.90924059  0.90625930  0.37607921  1.0
  F  F4113  1  0.90924059  0.99716840  0.37607921  1.0
  F  F4114  1  0.02388784  0.06966900  0.62458204  1.0
  F  F4115  1  0.02388784  0.16057809  0.62458204  1.0
  F  F4116  1  0.02388784  0.25148719  0.62458204  1.0
  F  F4117  1  0.02388784  0.34239628  0.62458204  1.0
  F  F4118  1  0.02388784  0.43330537  0.62458204  1.0
  F  F4119  1  0.02388784  0.52421446  0.62458204  1.0
  F  F4120  1  0.02388784  0.61512355  0.62458204  1.0
  F  F4121  1  0.02388784  0.70603264  0.62458204  1.0
  F  F4122  1  0.02388784  0.79694173  0.62458204  1.0
  F  F4123  1  0.02388784  0.88785082  0.62458204  1.0
  F  F4124  1  0.02388784  0.97875991  0.62458204  1.0
  F  F4125  1  0.11479693  0.06966900  0.62458204  1.0
  F  F4126  1  0.11479693  0.16057809  0.62458204  1.0
  F  F4127  1  0.11479693  0.25148719  0.62458204  1.0
  F  F4128  1  0.11479693  0.34239628  0.62458204  1.0
  F  F4129  1  0.11479693  0.43330537  0.62458204  1.0
  F  F4130  1  0.11479693  0.52421446  0.62458204  1.0
  F  F4131  1  0.11479693  0.61512355  0.62458204  1.0
  F  F4132  1  0.11479693  0.70603264  0.62458204  1.0
  F  F4133  1  0.11479693  0.79694173  0.62458204  1.0
  F  F4134  1  0.11479693  0.88785082  0.62458204  1.0
  F  F4135  1  0.11479693  0.97875991  0.62458204  1.0
  F  F4136  1  0.20570602  0.06966900  0.62458204  1.0
  F  F4137  1  0.20570602  0.16057809  0.62458204  1.0
  F  F4138  1  0.20570602  0.25148719  0.62458204  1.0
  F  F4139  1  0.20570602  0.34239628  0.62458204  1.0
  F  F4140  1  0.20570602  0.43330537  0.62458204  1.0
  F  F4141  1  0.20570602  0.52421446  0.62458204  1.0
  F  F4142  1  0.20570602  0.61512355  0.62458204  1.0
  F  F4143  1  0.20570602  0.70603264  0.62458204  1.0
  F  F4144  1  0.20570602  0.79694173  0.62458204  1.0
  F  F4145  1  0.20570602  0.88785082  0.62458204  1.0
  F  F4146  1  0.20570602  0.97875991  0.62458204  1.0
  F  F4147  1  0.29661511  0.06966900  0.62458204  1.0
  F  F4148  1  0.29661511  0.16057809  0.62458204  1.0
  F  F4149  1  0.29661511  0.25148719  0.62458204  1.0
  F  F4150  1  0.29661511  0.34239628  0.62458204  1.0
  F  F4151  1  0.29661511  0.43330537  0.62458204  1.0
  F  F4152  1  0.29661511  0.52421446  0.62458204  1.0
  F  F4153  1  0.29661511  0.61512355  0.62458204  1.0
  F  F4154  1  0.29661511  0.70603264  0.62458204  1.0
  F  F4155  1  0.29661511  0.79694173  0.62458204  1.0
  F  F4156  1  0.29661511  0.88785082  0.62458204  1.0
  F  F4157  1  0.29661511  0.97875991  0.62458204  1.0
  F  F4158  1  0.38752420  0.06966900  0.62458204  1.0
  F  F4159  1  0.38752420  0.16057809  0.62458204  1.0
  F  F4160  1  0.38752420  0.25148719  0.62458204  1.0
  F  F4161  1  0.38752420  0.34239628  0.62458204  1.0
  F  F4162  1  0.38752420  0.43330537  0.62458204  1.0
  F  F4163  1  0.38752420  0.52421446  0.62458204  1.0
  F  F4164  1  0.38752420  0.61512355  0.62458204  1.0
  F  F4165  1  0.38752420  0.70603264  0.62458204  1.0
  F  F4166  1  0.38752420  0.79694173  0.62458204  1.0
  F  F4167  1  0.38752420  0.88785082  0.62458204  1.0
  F  F4168  1  0.38752420  0.97875991  0.62458204  1.0
  F  F4169  1  0.47843329  0.06966900  0.62458204  1.0
  F  F4170  1  0.47843329  0.16057809  0.62458204  1.0
  F  F4171  1  0.47843329  0.25148719  0.62458204  1.0
  F  F4172  1  0.47843329  0.34239628  0.62458204  1.0
  F  F4173  1  0.47843329  0.43330537  0.62458204  1.0
  F  F4174  1  0.47843329  0.52421446  0.62458204  1.0
  F  F4175  1  0.47843329  0.61512355  0.62458204  1.0
  F  F4176  1  0.47843329  0.70603264  0.62458204  1.0
  F  F4177  1  0.47843329  0.79694173  0.62458204  1.0
  F  F4178  1  0.47843329  0.88785082  0.62458204  1.0
  F  F4179  1  0.47843329  0.97875991  0.62458204  1.0
  F  F4180  1  0.56934238  0.06966900  0.62458204  1.0
  F  F4181  1  0.56934238  0.16057809  0.62458204  1.0
  F  F4182  1  0.56934238  0.25148719  0.62458204  1.0
  F  F4183  1  0.56934238  0.34239628  0.62458204  1.0
  F  F4184  1  0.56934238  0.43330537  0.62458204  1.0
  F  F4185  1  0.56934238  0.52421446  0.62458204  1.0
  F  F4186  1  0.56934238  0.61512355  0.62458204  1.0
  F  F4187  1  0.56934238  0.70603264  0.62458204  1.0
  F  F4188  1  0.56934238  0.79694173  0.62458204  1.0
  F  F4189  1  0.56934238  0.88785082  0.62458204  1.0
  F  F4190  1  0.56934238  0.97875991  0.62458204  1.0
  F  F4191  1  0.66025148  0.06966900  0.62458204  1.0
  F  F4192  1  0.66025147  0.16057809  0.62458204  1.0
  F  F4193  1  0.66025147  0.25148719  0.62458204  1.0
  F  F4194  1  0.66025148  0.34239628  0.62458204  1.0
  F  F4195  1  0.66025148  0.43330537  0.62458204  1.0
  F  F4196  1  0.66025148  0.52421446  0.62458204  1.0
  F  F4197  1  0.66025147  0.61512355  0.62458204  1.0
  F  F4198  1  0.66025148  0.70603264  0.62458204  1.0
  F  F4199  1  0.66025147  0.79694173  0.62458204  1.0
  F  F4200  1  0.66025148  0.88785082  0.62458204  1.0
  F  F4201  1  0.66025148  0.97875991  0.62458204  1.0
  F  F4202  1  0.75116057  0.06966900  0.62458204  1.0
  F  F4203  1  0.75116057  0.16057809  0.62458204  1.0
  F  F4204  1  0.75116057  0.25148719  0.62458204  1.0
  F  F4205  1  0.75116057  0.34239628  0.62458204  1.0
  F  F4206  1  0.75116057  0.43330537  0.62458204  1.0
  F  F4207  1  0.75116057  0.52421446  0.62458204  1.0
  F  F4208  1  0.75116057  0.61512355  0.62458204  1.0
  F  F4209  1  0.75116057  0.70603264  0.62458204  1.0
  F  F4210  1  0.75116057  0.79694173  0.62458204  1.0
  F  F4211  1  0.75116057  0.88785082  0.62458204  1.0
  F  F4212  1  0.75116057  0.97875991  0.62458204  1.0
  F  F4213  1  0.84206966  0.06966900  0.62458204  1.0
  F  F4214  1  0.84206966  0.16057809  0.62458204  1.0
  F  F4215  1  0.84206966  0.25148719  0.62458204  1.0
  F  F4216  1  0.84206966  0.34239628  0.62458204  1.0
  F  F4217  1  0.84206966  0.43330537  0.62458204  1.0
  F  F4218  1  0.84206966  0.52421446  0.62458204  1.0
  F  F4219  1  0.84206966  0.61512355  0.62458204  1.0
  F  F4220  1  0.84206966  0.70603264  0.62458204  1.0
  F  F4221  1  0.84206966  0.79694173  0.62458204  1.0
  F  F4222  1  0.84206966  0.88785082  0.62458204  1.0
  F  F4223  1  0.84206966  0.97875991  0.62458204  1.0
  F  F4224  1  0.93297875  0.06966900  0.62458204  1.0
  F  F4225  1  0.93297875  0.16057809  0.62458204  1.0
  F  F4226  1  0.93297875  0.25148719  0.62458204  1.0
  F  F4227  1  0.93297875  0.34239628  0.62458204  1.0
  F  F4228  1  0.93297875  0.43330537  0.62458204  1.0
  F  F4229  1  0.93297875  0.52421446  0.62458204  1.0
  F  F4230  1  0.93297875  0.61512355  0.62458204  1.0
  F  F4231  1  0.93297875  0.70603264  0.62458204  1.0
  F  F4232  1  0.93297875  0.79694173  0.62458204  1.0
  F  F4233  1  0.93297875  0.88785082  0.62458204  1.0
  F  F4234  1  0.93297875  0.97875991  0.62458204  1.0
  F  F4235  1  0.06934238  0.02421446  0.55315347  1.0
  F  F4236  1  0.06934238  0.11512355  0.55315347  1.0
  F  F4237  1  0.06934238  0.20603264  0.55315347  1.0
  F  F4238  1  0.06934238  0.29694173  0.55315347  1.0
  F  F4239  1  0.06934238  0.38785082  0.55315347  1.0
  F  F4240  1  0.06934238  0.47875991  0.55315347  1.0
  F  F4241  1  0.06934238  0.56966900  0.55315347  1.0
  F  F4242  1  0.06934238  0.66057809  0.55315347  1.0
  F  F4243  1  0.06934238  0.75148718  0.55315347  1.0
  F  F4244  1  0.06934238  0.84239628  0.55315347  1.0
  F  F4245  1  0.06934238  0.93330537  0.55315347  1.0
  F  F4246  1  0.16025148  0.02421446  0.55315347  1.0
  F  F4247  1  0.16025148  0.11512355  0.55315347  1.0
  F  F4248  1  0.16025148  0.20603264  0.55315347  1.0
  F  F4249  1  0.16025148  0.29694173  0.55315347  1.0
  F  F4250  1  0.16025148  0.38785082  0.55315347  1.0
  F  F4251  1  0.16025148  0.47875991  0.55315347  1.0
  F  F4252  1  0.16025148  0.56966900  0.55315347  1.0
  F  F4253  1  0.16025148  0.66057809  0.55315347  1.0
  F  F4254  1  0.16025148  0.75148718  0.55315347  1.0
  F  F4255  1  0.16025148  0.84239628  0.55315347  1.0
  F  F4256  1  0.16025148  0.93330537  0.55315347  1.0
  F  F4257  1  0.25116057  0.02421446  0.55315347  1.0
  F  F4258  1  0.25116057  0.11512355  0.55315347  1.0
  F  F4259  1  0.25116057  0.20603264  0.55315347  1.0
  F  F4260  1  0.25116057  0.29694173  0.55315347  1.0
  F  F4261  1  0.25116057  0.38785082  0.55315347  1.0
  F  F4262  1  0.25116057  0.47875991  0.55315347  1.0
  F  F4263  1  0.25116057  0.56966900  0.55315347  1.0
  F  F4264  1  0.25116057  0.66057809  0.55315347  1.0
  F  F4265  1  0.25116057  0.75148718  0.55315347  1.0
  F  F4266  1  0.25116057  0.84239628  0.55315347  1.0
  F  F4267  1  0.25116057  0.93330537  0.55315347  1.0
  F  F4268  1  0.34206966  0.02421446  0.55315347  1.0
  F  F4269  1  0.34206966  0.11512355  0.55315347  1.0
  F  F4270  1  0.34206966  0.20603264  0.55315347  1.0
  F  F4271  1  0.34206966  0.29694173  0.55315347  1.0
  F  F4272  1  0.34206966  0.38785082  0.55315347  1.0
  F  F4273  1  0.34206966  0.47875991  0.55315347  1.0
  F  F4274  1  0.34206966  0.56966900  0.55315347  1.0
  F  F4275  1  0.34206966  0.66057809  0.55315347  1.0
  F  F4276  1  0.34206966  0.75148718  0.55315347  1.0
  F  F4277  1  0.34206966  0.84239628  0.55315347  1.0
  F  F4278  1  0.34206966  0.93330537  0.55315347  1.0
  F  F4279  1  0.43297875  0.02421446  0.55315347  1.0
  F  F4280  1  0.43297875  0.11512355  0.55315347  1.0
  F  F4281  1  0.43297875  0.20603264  0.55315347  1.0
  F  F4282  1  0.43297875  0.29694173  0.55315347  1.0
  F  F4283  1  0.43297875  0.38785082  0.55315347  1.0
  F  F4284  1  0.43297875  0.47875991  0.55315347  1.0
  F  F4285  1  0.43297875  0.56966900  0.55315347  1.0
  F  F4286  1  0.43297875  0.66057809  0.55315347  1.0
  F  F4287  1  0.43297875  0.75148718  0.55315347  1.0
  F  F4288  1  0.43297875  0.84239628  0.55315347  1.0
  F  F4289  1  0.43297875  0.93330537  0.55315347  1.0
  F  F4290  1  0.52388784  0.02421446  0.55315347  1.0
  F  F4291  1  0.52388784  0.11512355  0.55315347  1.0
  F  F4292  1  0.52388784  0.20603264  0.55315347  1.0
  F  F4293  1  0.52388784  0.29694173  0.55315347  1.0
  F  F4294  1  0.52388784  0.38785082  0.55315347  1.0
  F  F4295  1  0.52388784  0.47875991  0.55315347  1.0
  F  F4296  1  0.52388784  0.56966900  0.55315347  1.0
  F  F4297  1  0.52388784  0.66057809  0.55315347  1.0
  F  F4298  1  0.52388784  0.75148718  0.55315347  1.0
  F  F4299  1  0.52388784  0.84239628  0.55315347  1.0
  F  F4300  1  0.52388784  0.93330537  0.55315347  1.0
  F  F4301  1  0.61479693  0.02421446  0.55315347  1.0
  F  F4302  1  0.61479693  0.11512355  0.55315347  1.0
  F  F4303  1  0.61479693  0.20603264  0.55315347  1.0
  F  F4304  1  0.61479693  0.29694173  0.55315347  1.0
  F  F4305  1  0.61479693  0.38785082  0.55315347  1.0
  F  F4306  1  0.61479693  0.47875991  0.55315347  1.0
  F  F4307  1  0.61479693  0.56966900  0.55315347  1.0
  F  F4308  1  0.61479693  0.66057809  0.55315347  1.0
  F  F4309  1  0.61479693  0.75148718  0.55315347  1.0
  F  F4310  1  0.61479693  0.84239628  0.55315347  1.0
  F  F4311  1  0.61479693  0.93330537  0.55315347  1.0
  F  F4312  1  0.70570602  0.02421446  0.55315347  1.0
  F  F4313  1  0.70570602  0.11512355  0.55315347  1.0
  F  F4314  1  0.70570602  0.20603264  0.55315347  1.0
  F  F4315  1  0.70570602  0.29694173  0.55315347  1.0
  F  F4316  1  0.70570602  0.38785082  0.55315347  1.0
  F  F4317  1  0.70570602  0.47875991  0.55315347  1.0
  F  F4318  1  0.70570602  0.56966900  0.55315347  1.0
  F  F4319  1  0.70570602  0.66057809  0.55315347  1.0
  F  F4320  1  0.70570602  0.75148718  0.55315347  1.0
  F  F4321  1  0.70570602  0.84239628  0.55315347  1.0
  F  F4322  1  0.70570602  0.93330537  0.55315347  1.0
  F  F4323  1  0.79661511  0.02421446  0.55315347  1.0
  F  F4324  1  0.79661511  0.11512355  0.55315347  1.0
  F  F4325  1  0.79661511  0.20603264  0.55315347  1.0
  F  F4326  1  0.79661511  0.29694173  0.55315347  1.0
  F  F4327  1  0.79661511  0.38785082  0.55315347  1.0
  F  F4328  1  0.79661511  0.47875991  0.55315347  1.0
  F  F4329  1  0.79661511  0.56966900  0.55315347  1.0
  F  F4330  1  0.79661511  0.66057809  0.55315347  1.0
  F  F4331  1  0.79661511  0.75148718  0.55315347  1.0
  F  F4332  1  0.79661511  0.84239628  0.55315347  1.0
  F  F4333  1  0.79661511  0.93330537  0.55315347  1.0
  F  F4334  1  0.88752420  0.02421446  0.55315347  1.0
  F  F4335  1  0.88752420  0.11512355  0.55315347  1.0
  F  F4336  1  0.88752420  0.20603264  0.55315347  1.0
  F  F4337  1  0.88752420  0.29694173  0.55315347  1.0
  F  F4338  1  0.88752420  0.38785082  0.55315347  1.0
  F  F4339  1  0.88752420  0.47875991  0.55315347  1.0
  F  F4340  1  0.88752420  0.56966900  0.55315347  1.0
  F  F4341  1  0.88752420  0.66057809  0.55315347  1.0
  F  F4342  1  0.88752420  0.75148718  0.55315347  1.0
  F  F4343  1  0.88752420  0.84239628  0.55315347  1.0
  F  F4344  1  0.88752420  0.93330537  0.55315347  1.0
  F  F4345  1  0.97843329  0.02421446  0.55315347  1.0
  F  F4346  1  0.97843329  0.11512355  0.55315347  1.0
  F  F4347  1  0.97843329  0.20603264  0.55315347  1.0
  F  F4348  1  0.97843329  0.29694173  0.55315347  1.0
  F  F4349  1  0.97843329  0.38785082  0.55315347  1.0
  F  F4350  1  0.97843329  0.47875991  0.55315347  1.0
  F  F4351  1  0.97843329  0.56966900  0.55315347  1.0
  F  F4352  1  0.97843329  0.66057809  0.55315347  1.0
  F  F4353  1  0.97843329  0.75148718  0.55315347  1.0
  F  F4354  1  0.97843329  0.84239628  0.55315347  1.0
  F  F4355  1  0.97843329  0.93330537  0.55315347  1.0
  F  F4356  1  0.06914445  0.06639475  0.62442683  1.0
  F  F4357  1  0.06914445  0.15730384  0.62442683  1.0
  F  F4358  1  0.06914445  0.24821293  0.62442683  1.0
  F  F4359  1  0.06914445  0.33912203  0.62442683  1.0
  F  F4360  1  0.06914445  0.43003112  0.62442683  1.0
  F  F4361  1  0.06914445  0.52094021  0.62442683  1.0
  F  F4362  1  0.06914445  0.61184930  0.62442683  1.0
  F  F4363  1  0.06914445  0.70275839  0.62442683  1.0
  F  F4364  1  0.06914445  0.79366748  0.62442683  1.0
  F  F4365  1  0.06914445  0.88457657  0.62442683  1.0
  F  F4366  1  0.06914445  0.97548566  0.62442683  1.0
  F  F4367  1  0.16005354  0.06639475  0.62442683  1.0
  F  F4368  1  0.16005354  0.15730384  0.62442683  1.0
  F  F4369  1  0.16005354  0.24821293  0.62442683  1.0
  F  F4370  1  0.16005354  0.33912203  0.62442683  1.0
  F  F4371  1  0.16005354  0.43003112  0.62442683  1.0
  F  F4372  1  0.16005354  0.52094021  0.62442683  1.0
  F  F4373  1  0.16005354  0.61184930  0.62442683  1.0
  F  F4374  1  0.16005354  0.70275839  0.62442683  1.0
  F  F4375  1  0.16005354  0.79366748  0.62442683  1.0
  F  F4376  1  0.16005354  0.88457657  0.62442683  1.0
  F  F4377  1  0.16005354  0.97548566  0.62442683  1.0
  F  F4378  1  0.25096263  0.06639475  0.62442683  1.0
  F  F4379  1  0.25096263  0.15730384  0.62442683  1.0
  F  F4380  1  0.25096263  0.24821293  0.62442683  1.0
  F  F4381  1  0.25096263  0.33912203  0.62442683  1.0
  F  F4382  1  0.25096263  0.43003112  0.62442683  1.0
  F  F4383  1  0.25096263  0.52094021  0.62442683  1.0
  F  F4384  1  0.25096263  0.61184930  0.62442683  1.0
  F  F4385  1  0.25096263  0.70275839  0.62442683  1.0
  F  F4386  1  0.25096263  0.79366748  0.62442683  1.0
  F  F4387  1  0.25096263  0.88457657  0.62442683  1.0
  F  F4388  1  0.25096263  0.97548566  0.62442683  1.0
  F  F4389  1  0.34187172  0.06639475  0.62442683  1.0
  F  F4390  1  0.34187172  0.15730384  0.62442683  1.0
  F  F4391  1  0.34187172  0.24821293  0.62442683  1.0
  F  F4392  1  0.34187172  0.33912203  0.62442683  1.0
  F  F4393  1  0.34187172  0.43003112  0.62442683  1.0
  F  F4394  1  0.34187172  0.52094021  0.62442683  1.0
  F  F4395  1  0.34187172  0.61184930  0.62442683  1.0
  F  F4396  1  0.34187172  0.70275839  0.62442683  1.0
  F  F4397  1  0.34187172  0.79366748  0.62442683  1.0
  F  F4398  1  0.34187172  0.88457657  0.62442683  1.0
  F  F4399  1  0.34187172  0.97548566  0.62442683  1.0
  F  F4400  1  0.43278081  0.06639475  0.62442683  1.0
  F  F4401  1  0.43278081  0.15730384  0.62442683  1.0
  F  F4402  1  0.43278081  0.24821293  0.62442683  1.0
  F  F4403  1  0.43278081  0.33912203  0.62442683  1.0
  F  F4404  1  0.43278081  0.43003112  0.62442683  1.0
  F  F4405  1  0.43278081  0.52094021  0.62442683  1.0
  F  F4406  1  0.43278081  0.61184930  0.62442683  1.0
  F  F4407  1  0.43278081  0.70275839  0.62442683  1.0
  F  F4408  1  0.43278081  0.79366748  0.62442683  1.0
  F  F4409  1  0.43278081  0.88457657  0.62442683  1.0
  F  F4410  1  0.43278081  0.97548566  0.62442683  1.0
  F  F4411  1  0.52368990  0.06639475  0.62442683  1.0
  F  F4412  1  0.52368990  0.15730384  0.62442683  1.0
  F  F4413  1  0.52368990  0.24821293  0.62442683  1.0
  F  F4414  1  0.52368990  0.33912203  0.62442683  1.0
  F  F4415  1  0.52368990  0.43003112  0.62442683  1.0
  F  F4416  1  0.52368990  0.52094021  0.62442683  1.0
  F  F4417  1  0.52368990  0.61184930  0.62442683  1.0
  F  F4418  1  0.52368990  0.70275839  0.62442683  1.0
  F  F4419  1  0.52368990  0.79366748  0.62442683  1.0
  F  F4420  1  0.52368990  0.88457657  0.62442683  1.0
  F  F4421  1  0.52368990  0.97548566  0.62442683  1.0
  F  F4422  1  0.61459899  0.06639475  0.62442683  1.0
  F  F4423  1  0.61459899  0.15730384  0.62442683  1.0
  F  F4424  1  0.61459899  0.24821293  0.62442683  1.0
  F  F4425  1  0.61459899  0.33912203  0.62442683  1.0
  F  F4426  1  0.61459899  0.43003112  0.62442683  1.0
  F  F4427  1  0.61459899  0.52094021  0.62442683  1.0
  F  F4428  1  0.61459899  0.61184930  0.62442683  1.0
  F  F4429  1  0.61459899  0.70275839  0.62442683  1.0
  F  F4430  1  0.61459899  0.79366748  0.62442683  1.0
  F  F4431  1  0.61459899  0.88457657  0.62442683  1.0
  F  F4432  1  0.61459899  0.97548566  0.62442683  1.0
  F  F4433  1  0.70550809  0.06639475  0.62442683  1.0
  F  F4434  1  0.70550809  0.15730384  0.62442683  1.0
  F  F4435  1  0.70550808  0.24821293  0.62442683  1.0
  F  F4436  1  0.70550809  0.33912203  0.62442683  1.0
  F  F4437  1  0.70550809  0.43003112  0.62442683  1.0
  F  F4438  1  0.70550809  0.52094021  0.62442683  1.0
  F  F4439  1  0.70550809  0.61184930  0.62442683  1.0
  F  F4440  1  0.70550809  0.70275839  0.62442683  1.0
  F  F4441  1  0.70550809  0.79366748  0.62442683  1.0
  F  F4442  1  0.70550809  0.88457657  0.62442683  1.0
  F  F4443  1  0.70550809  0.97548566  0.62442683  1.0
  F  F4444  1  0.79641718  0.06639475  0.62442683  1.0
  F  F4445  1  0.79641718  0.15730384  0.62442683  1.0
  F  F4446  1  0.79641718  0.24821293  0.62442683  1.0
  F  F4447  1  0.79641718  0.33912203  0.62442683  1.0
  F  F4448  1  0.79641718  0.43003112  0.62442683  1.0
  F  F4449  1  0.79641718  0.52094021  0.62442683  1.0
  F  F4450  1  0.79641718  0.61184930  0.62442683  1.0
  F  F4451  1  0.79641718  0.70275839  0.62442683  1.0
  F  F4452  1  0.79641718  0.79366748  0.62442683  1.0
  F  F4453  1  0.79641718  0.88457657  0.62442683  1.0
  F  F4454  1  0.79641718  0.97548566  0.62442683  1.0
  F  F4455  1  0.88732627  0.06639475  0.62442683  1.0
  F  F4456  1  0.88732627  0.15730384  0.62442683  1.0
  F  F4457  1  0.88732627  0.24821293  0.62442683  1.0
  F  F4458  1  0.88732627  0.33912203  0.62442683  1.0
  F  F4459  1  0.88732627  0.43003112  0.62442683  1.0
  F  F4460  1  0.88732627  0.52094021  0.62442683  1.0
  F  F4461  1  0.88732627  0.61184930  0.62442683  1.0
  F  F4462  1  0.88732627  0.70275839  0.62442683  1.0
  F  F4463  1  0.88732627  0.79366748  0.62442683  1.0
  F  F4464  1  0.88732627  0.88457657  0.62442683  1.0
  F  F4465  1  0.88732627  0.97548566  0.62442683  1.0
  F  F4466  1  0.97823536  0.06639475  0.62442683  1.0
  F  F4467  1  0.97823536  0.15730384  0.62442683  1.0
  F  F4468  1  0.97823536  0.24821293  0.62442683  1.0
  F  F4469  1  0.97823536  0.33912203  0.62442683  1.0
  F  F4470  1  0.97823536  0.43003112  0.62442683  1.0
  F  F4471  1  0.97823536  0.52094021  0.62442683  1.0
  F  F4472  1  0.97823536  0.61184930  0.62442683  1.0
  F  F4473  1  0.97823536  0.70275839  0.62442683  1.0
  F  F4474  1  0.97823536  0.79366748  0.62442683  1.0
  F  F4475  1  0.97823536  0.88457657  0.62442683  1.0
  F  F4476  1  0.97823536  0.97548566  0.62442683  1.0
  F  F4477  1  0.02368990  0.02094021  0.55299826  1.0
  F  F4478  1  0.02368990  0.11184930  0.55299826  1.0
  F  F4479  1  0.02368990  0.20275839  0.55299826  1.0
  F  F4480  1  0.02368990  0.29366748  0.55299826  1.0
  F  F4481  1  0.02368990  0.38457657  0.55299826  1.0
  F  F4482  1  0.02368990  0.47548566  0.55299826  1.0
  F  F4483  1  0.02368990  0.56639475  0.55299826  1.0
  F  F4484  1  0.02368990  0.65730384  0.55299826  1.0
  F  F4485  1  0.02368990  0.74821293  0.55299826  1.0
  F  F4486  1  0.02368990  0.83912202  0.55299826  1.0
  F  F4487  1  0.02368990  0.93003112  0.55299826  1.0
  F  F4488  1  0.11459899  0.02094021  0.55299826  1.0
  F  F4489  1  0.11459899  0.11184930  0.55299826  1.0
  F  F4490  1  0.11459899  0.20275839  0.55299826  1.0
  F  F4491  1  0.11459899  0.29366748  0.55299826  1.0
  F  F4492  1  0.11459899  0.38457657  0.55299826  1.0
  F  F4493  1  0.11459899  0.47548566  0.55299826  1.0
  F  F4494  1  0.11459899  0.56639475  0.55299826  1.0
  F  F4495  1  0.11459899  0.65730384  0.55299826  1.0
  F  F4496  1  0.11459899  0.74821293  0.55299826  1.0
  F  F4497  1  0.11459899  0.83912202  0.55299826  1.0
  F  F4498  1  0.11459899  0.93003112  0.55299826  1.0
  F  F4499  1  0.20550808  0.02094021  0.55299826  1.0
  F  F4500  1  0.20550809  0.11184930  0.55299826  1.0
  F  F4501  1  0.20550809  0.20275839  0.55299826  1.0
  F  F4502  1  0.20550808  0.29366748  0.55299826  1.0
  F  F4503  1  0.20550809  0.38457657  0.55299826  1.0
  F  F4504  1  0.20550809  0.47548566  0.55299826  1.0
  F  F4505  1  0.20550809  0.56639475  0.55299826  1.0
  F  F4506  1  0.20550809  0.65730384  0.55299826  1.0
  F  F4507  1  0.20550809  0.74821293  0.55299826  1.0
  F  F4508  1  0.20550809  0.83912202  0.55299826  1.0
  F  F4509  1  0.20550809  0.93003112  0.55299826  1.0
  F  F4510  1  0.29641718  0.02094021  0.55299826  1.0
  F  F4511  1  0.29641718  0.11184930  0.55299826  1.0
  F  F4512  1  0.29641718  0.20275839  0.55299826  1.0
  F  F4513  1  0.29641718  0.29366748  0.55299826  1.0
  F  F4514  1  0.29641718  0.38457657  0.55299826  1.0
  F  F4515  1  0.29641718  0.47548566  0.55299826  1.0
  F  F4516  1  0.29641718  0.56639475  0.55299826  1.0
  F  F4517  1  0.29641718  0.65730384  0.55299826  1.0
  F  F4518  1  0.29641718  0.74821293  0.55299826  1.0
  F  F4519  1  0.29641718  0.83912202  0.55299826  1.0
  F  F4520  1  0.29641718  0.93003112  0.55299826  1.0
  F  F4521  1  0.38732627  0.02094021  0.55299826  1.0
  F  F4522  1  0.38732627  0.11184930  0.55299826  1.0
  F  F4523  1  0.38732627  0.20275839  0.55299826  1.0
  F  F4524  1  0.38732627  0.29366748  0.55299826  1.0
  F  F4525  1  0.38732627  0.38457657  0.55299826  1.0
  F  F4526  1  0.38732627  0.47548566  0.55299826  1.0
  F  F4527  1  0.38732627  0.56639475  0.55299826  1.0
  F  F4528  1  0.38732627  0.65730384  0.55299826  1.0
  F  F4529  1  0.38732627  0.74821293  0.55299826  1.0
  F  F4530  1  0.38732627  0.83912202  0.55299826  1.0
  F  F4531  1  0.38732627  0.93003112  0.55299826  1.0
  F  F4532  1  0.47823536  0.02094021  0.55299826  1.0
  F  F4533  1  0.47823536  0.11184930  0.55299826  1.0
  F  F4534  1  0.47823536  0.20275839  0.55299826  1.0
  F  F4535  1  0.47823536  0.29366748  0.55299826  1.0
  F  F4536  1  0.47823536  0.38457657  0.55299826  1.0
  F  F4537  1  0.47823536  0.47548566  0.55299826  1.0
  F  F4538  1  0.47823536  0.56639475  0.55299826  1.0
  F  F4539  1  0.47823536  0.65730384  0.55299826  1.0
  F  F4540  1  0.47823536  0.74821293  0.55299826  1.0
  F  F4541  1  0.47823536  0.83912202  0.55299826  1.0
  F  F4542  1  0.47823536  0.93003112  0.55299826  1.0
  F  F4543  1  0.56914445  0.02094021  0.55299826  1.0
  F  F4544  1  0.56914445  0.11184930  0.55299826  1.0
  F  F4545  1  0.56914445  0.20275839  0.55299826  1.0
  F  F4546  1  0.56914445  0.29366748  0.55299826  1.0
  F  F4547  1  0.56914445  0.38457657  0.55299826  1.0
  F  F4548  1  0.56914445  0.47548566  0.55299826  1.0
  F  F4549  1  0.56914445  0.56639475  0.55299826  1.0
  F  F4550  1  0.56914445  0.65730384  0.55299826  1.0
  F  F4551  1  0.56914445  0.74821293  0.55299826  1.0
  F  F4552  1  0.56914445  0.83912202  0.55299826  1.0
  F  F4553  1  0.56914445  0.93003112  0.55299826  1.0
  F  F4554  1  0.66005354  0.02094021  0.55299826  1.0
  F  F4555  1  0.66005354  0.11184930  0.55299826  1.0
  F  F4556  1  0.66005354  0.20275839  0.55299826  1.0
  F  F4557  1  0.66005354  0.29366748  0.55299826  1.0
  F  F4558  1  0.66005354  0.38457657  0.55299826  1.0
  F  F4559  1  0.66005354  0.47548566  0.55299826  1.0
  F  F4560  1  0.66005354  0.56639475  0.55299826  1.0
  F  F4561  1  0.66005354  0.65730384  0.55299826  1.0
  F  F4562  1  0.66005354  0.74821293  0.55299826  1.0
  F  F4563  1  0.66005354  0.83912202  0.55299826  1.0
  F  F4564  1  0.66005354  0.93003112  0.55299826  1.0
  F  F4565  1  0.75096263  0.02094021  0.55299826  1.0
  F  F4566  1  0.75096263  0.11184930  0.55299826  1.0
  F  F4567  1  0.75096263  0.20275839  0.55299826  1.0
  F  F4568  1  0.75096263  0.29366748  0.55299826  1.0
  F  F4569  1  0.75096263  0.38457657  0.55299826  1.0
  F  F4570  1  0.75096263  0.47548566  0.55299826  1.0
  F  F4571  1  0.75096263  0.56639475  0.55299826  1.0
  F  F4572  1  0.75096263  0.65730384  0.55299826  1.0
  F  F4573  1  0.75096263  0.74821293  0.55299826  1.0
  F  F4574  1  0.75096263  0.83912202  0.55299826  1.0
  F  F4575  1  0.75096263  0.93003112  0.55299826  1.0
  F  F4576  1  0.84187172  0.02094021  0.55299826  1.0
  F  F4577  1  0.84187172  0.11184930  0.55299826  1.0
  F  F4578  1  0.84187172  0.20275839  0.55299826  1.0
  F  F4579  1  0.84187172  0.29366748  0.55299826  1.0
  F  F4580  1  0.84187172  0.38457657  0.55299826  1.0
  F  F4581  1  0.84187172  0.47548566  0.55299826  1.0
  F  F4582  1  0.84187172  0.56639475  0.55299826  1.0
  F  F4583  1  0.84187172  0.65730384  0.55299826  1.0
  F  F4584  1  0.84187172  0.74821293  0.55299826  1.0
  F  F4585  1  0.84187172  0.83912202  0.55299826  1.0
  F  F4586  1  0.84187172  0.93003112  0.55299826  1.0
  F  F4587  1  0.93278081  0.02094021  0.55299826  1.0
  F  F4588  1  0.93278081  0.11184930  0.55299826  1.0
  F  F4589  1  0.93278081  0.20275839  0.55299826  1.0
  F  F4590  1  0.93278081  0.29366748  0.55299826  1.0
  F  F4591  1  0.93278081  0.38457657  0.55299826  1.0
  F  F4592  1  0.93278081  0.47548566  0.55299826  1.0
  F  F4593  1  0.93278081  0.56639475  0.55299826  1.0
  F  F4594  1  0.93278081  0.65730384  0.55299826  1.0
  F  F4595  1  0.93278081  0.74821293  0.55299826  1.0
  F  F4596  1  0.93278081  0.83912202  0.55299826  1.0
  F  F4597  1  0.93278081  0.93003112  0.55299826  1.0
  F  F4598  1  0.06702125  0.02124009  0.48566973  1.0
  F  F4599  1  0.06702125  0.11214918  0.48566973  1.0
  F  F4600  1  0.06702125  0.20305827  0.48566973  1.0
  F  F4601  1  0.06702125  0.29396736  0.48566973  1.0
  F  F4602  1  0.06702125  0.38487645  0.48566973  1.0
  F  F4603  1  0.06702125  0.47578554  0.48566973  1.0
  F  F4604  1  0.06702125  0.56669463  0.48566973  1.0
  F  F4605  1  0.06702125  0.65760372  0.48566973  1.0
  F  F4606  1  0.06702125  0.74851281  0.48566973  1.0
  F  F4607  1  0.06702125  0.83942191  0.48566973  1.0
  F  F4608  1  0.06702125  0.93033100  0.48566973  1.0
  F  F4609  1  0.15793034  0.02124009  0.48566973  1.0
  F  F4610  1  0.15793034  0.11214918  0.48566973  1.0
  F  F4611  1  0.15793034  0.20305827  0.48566973  1.0
  F  F4612  1  0.15793034  0.29396736  0.48566973  1.0
  F  F4613  1  0.15793034  0.38487645  0.48566973  1.0
  F  F4614  1  0.15793034  0.47578554  0.48566973  1.0
  F  F4615  1  0.15793034  0.56669463  0.48566973  1.0
  F  F4616  1  0.15793034  0.65760372  0.48566973  1.0
  F  F4617  1  0.15793034  0.74851281  0.48566973  1.0
  F  F4618  1  0.15793034  0.83942191  0.48566973  1.0
  F  F4619  1  0.15793034  0.93033100  0.48566973  1.0
  F  F4620  1  0.24883943  0.02124009  0.48566973  1.0
  F  F4621  1  0.24883943  0.11214918  0.48566973  1.0
  F  F4622  1  0.24883943  0.20305827  0.48566973  1.0
  F  F4623  1  0.24883943  0.29396736  0.48566973  1.0
  F  F4624  1  0.24883943  0.38487645  0.48566973  1.0
  F  F4625  1  0.24883943  0.47578554  0.48566973  1.0
  F  F4626  1  0.24883943  0.56669463  0.48566973  1.0
  F  F4627  1  0.24883943  0.65760372  0.48566973  1.0
  F  F4628  1  0.24883943  0.74851281  0.48566973  1.0
  F  F4629  1  0.24883943  0.83942191  0.48566973  1.0
  F  F4630  1  0.24883943  0.93033100  0.48566973  1.0
  F  F4631  1  0.33974852  0.02124009  0.48566973  1.0
  F  F4632  1  0.33974852  0.11214918  0.48566973  1.0
  F  F4633  1  0.33974852  0.20305827  0.48566973  1.0
  F  F4634  1  0.33974852  0.29396736  0.48566973  1.0
  F  F4635  1  0.33974852  0.38487645  0.48566973  1.0
  F  F4636  1  0.33974853  0.47578554  0.48566973  1.0
  F  F4637  1  0.33974852  0.56669463  0.48566973  1.0
  F  F4638  1  0.33974852  0.65760372  0.48566973  1.0
  F  F4639  1  0.33974852  0.74851281  0.48566973  1.0
  F  F4640  1  0.33974852  0.83942191  0.48566973  1.0
  F  F4641  1  0.33974852  0.93033100  0.48566973  1.0
  F  F4642  1  0.43065762  0.02124009  0.48566973  1.0
  F  F4643  1  0.43065762  0.11214918  0.48566973  1.0
  F  F4644  1  0.43065762  0.20305827  0.48566973  1.0
  F  F4645  1  0.43065762  0.29396736  0.48566973  1.0
  F  F4646  1  0.43065762  0.38487645  0.48566973  1.0
  F  F4647  1  0.43065762  0.47578554  0.48566973  1.0
  F  F4648  1  0.43065762  0.56669463  0.48566973  1.0
  F  F4649  1  0.43065762  0.65760372  0.48566973  1.0
  F  F4650  1  0.43065762  0.74851281  0.48566973  1.0
  F  F4651  1  0.43065762  0.83942191  0.48566973  1.0
  F  F4652  1  0.43065762  0.93033100  0.48566973  1.0
  F  F4653  1  0.52156671  0.02124009  0.48566973  1.0
  F  F4654  1  0.52156671  0.11214918  0.48566973  1.0
  F  F4655  1  0.52156671  0.20305827  0.48566973  1.0
  F  F4656  1  0.52156671  0.29396736  0.48566973  1.0
  F  F4657  1  0.52156671  0.38487645  0.48566973  1.0
  F  F4658  1  0.52156671  0.47578554  0.48566973  1.0
  F  F4659  1  0.52156671  0.56669463  0.48566973  1.0
  F  F4660  1  0.52156671  0.65760372  0.48566973  1.0
  F  F4661  1  0.52156671  0.74851281  0.48566973  1.0
  F  F4662  1  0.52156671  0.83942191  0.48566973  1.0
  F  F4663  1  0.52156671  0.93033100  0.48566973  1.0
  F  F4664  1  0.61247580  0.02124009  0.48566973  1.0
  F  F4665  1  0.61247580  0.11214918  0.48566973  1.0
  F  F4666  1  0.61247580  0.20305827  0.48566973  1.0
  F  F4667  1  0.61247580  0.29396736  0.48566973  1.0
  F  F4668  1  0.61247580  0.38487645  0.48566973  1.0
  F  F4669  1  0.61247580  0.47578554  0.48566973  1.0
  F  F4670  1  0.61247580  0.56669463  0.48566973  1.0
  F  F4671  1  0.61247580  0.65760372  0.48566973  1.0
  F  F4672  1  0.61247580  0.74851281  0.48566973  1.0
  F  F4673  1  0.61247580  0.83942191  0.48566973  1.0
  F  F4674  1  0.61247580  0.93033100  0.48566973  1.0
  F  F4675  1  0.70338489  0.02124009  0.48566973  1.0
  F  F4676  1  0.70338489  0.11214918  0.48566973  1.0
  F  F4677  1  0.70338489  0.20305827  0.48566973  1.0
  F  F4678  1  0.70338489  0.29396736  0.48566973  1.0
  F  F4679  1  0.70338489  0.38487645  0.48566973  1.0
  F  F4680  1  0.70338489  0.47578554  0.48566973  1.0
  F  F4681  1  0.70338489  0.56669463  0.48566973  1.0
  F  F4682  1  0.70338489  0.65760372  0.48566973  1.0
  F  F4683  1  0.70338489  0.74851281  0.48566973  1.0
  F  F4684  1  0.70338489  0.83942191  0.48566973  1.0
  F  F4685  1  0.70338489  0.93033100  0.48566973  1.0
  F  F4686  1  0.79429398  0.02124009  0.48566973  1.0
  F  F4687  1  0.79429398  0.11214918  0.48566973  1.0
  F  F4688  1  0.79429398  0.20305827  0.48566973  1.0
  F  F4689  1  0.79429398  0.29396736  0.48566973  1.0
  F  F4690  1  0.79429398  0.38487645  0.48566973  1.0
  F  F4691  1  0.79429398  0.47578554  0.48566973  1.0
  F  F4692  1  0.79429398  0.56669463  0.48566973  1.0
  F  F4693  1  0.79429398  0.65760372  0.48566973  1.0
  F  F4694  1  0.79429398  0.74851281  0.48566973  1.0
  F  F4695  1  0.79429398  0.83942191  0.48566973  1.0
  F  F4696  1  0.79429398  0.93033100  0.48566973  1.0
  F  F4697  1  0.88520307  0.02124009  0.48566973  1.0
  F  F4698  1  0.88520307  0.11214918  0.48566973  1.0
  F  F4699  1  0.88520307  0.20305827  0.48566973  1.0
  F  F4700  1  0.88520307  0.29396736  0.48566973  1.0
  F  F4701  1  0.88520307  0.38487645  0.48566973  1.0
  F  F4702  1  0.88520307  0.47578554  0.48566973  1.0
  F  F4703  1  0.88520307  0.56669463  0.48566973  1.0
  F  F4704  1  0.88520307  0.65760372  0.48566973  1.0
  F  F4705  1  0.88520307  0.74851281  0.48566973  1.0
  F  F4706  1  0.88520307  0.83942191  0.48566973  1.0
  F  F4707  1  0.88520307  0.93033100  0.48566973  1.0
  F  F4708  1  0.97611216  0.02124009  0.48566973  1.0
  F  F4709  1  0.97611216  0.11214918  0.48566973  1.0
  F  F4710  1  0.97611216  0.20305827  0.48566973  1.0
  F  F4711  1  0.97611216  0.29396736  0.48566973  1.0
  F  F4712  1  0.97611216  0.38487645  0.48566973  1.0
  F  F4713  1  0.97611216  0.47578554  0.48566973  1.0
  F  F4714  1  0.97611216  0.56669463  0.48566973  1.0
  F  F4715  1  0.97611216  0.65760372  0.48566973  1.0
  F  F4716  1  0.97611216  0.74851281  0.48566973  1.0
  F  F4717  1  0.97611216  0.83942191  0.48566973  1.0
  F  F4718  1  0.97611216  0.93033100  0.48566973  1.0
  F  F4719  1  0.02156671  0.06669463  0.55709830  1.0
  F  F4720  1  0.02156671  0.15760372  0.55709830  1.0
  F  F4721  1  0.02156671  0.24851281  0.55709830  1.0
  F  F4722  1  0.02156671  0.33942191  0.55709830  1.0
  F  F4723  1  0.02156671  0.43033100  0.55709830  1.0
  F  F4724  1  0.02156671  0.52124009  0.55709830  1.0
  F  F4725  1  0.02156671  0.61214918  0.55709830  1.0
  F  F4726  1  0.02156671  0.70305827  0.55709830  1.0
  F  F4727  1  0.02156671  0.79396736  0.55709830  1.0
  F  F4728  1  0.02156671  0.88487645  0.55709830  1.0
  F  F4729  1  0.02156671  0.97578554  0.55709830  1.0
  F  F4730  1  0.11247580  0.06669463  0.55709830  1.0
  F  F4731  1  0.11247580  0.15760372  0.55709830  1.0
  F  F4732  1  0.11247580  0.24851281  0.55709830  1.0
  F  F4733  1  0.11247580  0.33942191  0.55709830  1.0
  F  F4734  1  0.11247580  0.43033100  0.55709830  1.0
  F  F4735  1  0.11247580  0.52124009  0.55709830  1.0
  F  F4736  1  0.11247580  0.61214918  0.55709830  1.0
  F  F4737  1  0.11247580  0.70305827  0.55709830  1.0
  F  F4738  1  0.11247580  0.79396736  0.55709830  1.0
  F  F4739  1  0.11247580  0.88487645  0.55709830  1.0
  F  F4740  1  0.11247580  0.97578554  0.55709830  1.0
  F  F4741  1  0.20338489  0.06669463  0.55709830  1.0
  F  F4742  1  0.20338489  0.15760372  0.55709830  1.0
  F  F4743  1  0.20338489  0.24851281  0.55709830  1.0
  F  F4744  1  0.20338489  0.33942191  0.55709830  1.0
  F  F4745  1  0.20338489  0.43033100  0.55709830  1.0
  F  F4746  1  0.20338489  0.52124009  0.55709830  1.0
  F  F4747  1  0.20338489  0.61214918  0.55709830  1.0
  F  F4748  1  0.20338489  0.70305827  0.55709830  1.0
  F  F4749  1  0.20338489  0.79396736  0.55709830  1.0
  F  F4750  1  0.20338489  0.88487645  0.55709830  1.0
  F  F4751  1  0.20338489  0.97578554  0.55709830  1.0
  F  F4752  1  0.29429398  0.06669463  0.55709830  1.0
  F  F4753  1  0.29429398  0.15760372  0.55709830  1.0
  F  F4754  1  0.29429398  0.24851281  0.55709830  1.0
  F  F4755  1  0.29429398  0.33942191  0.55709830  1.0
  F  F4756  1  0.29429398  0.43033100  0.55709830  1.0
  F  F4757  1  0.29429398  0.52124009  0.55709830  1.0
  F  F4758  1  0.29429398  0.61214918  0.55709830  1.0
  F  F4759  1  0.29429398  0.70305827  0.55709830  1.0
  F  F4760  1  0.29429398  0.79396736  0.55709830  1.0
  F  F4761  1  0.29429398  0.88487645  0.55709830  1.0
  F  F4762  1  0.29429398  0.97578554  0.55709830  1.0
  F  F4763  1  0.38520307  0.06669463  0.55709830  1.0
  F  F4764  1  0.38520307  0.15760372  0.55709830  1.0
  F  F4765  1  0.38520307  0.24851281  0.55709830  1.0
  F  F4766  1  0.38520307  0.33942191  0.55709830  1.0
  F  F4767  1  0.38520307  0.43033100  0.55709830  1.0
  F  F4768  1  0.38520307  0.52124009  0.55709830  1.0
  F  F4769  1  0.38520307  0.61214918  0.55709830  1.0
  F  F4770  1  0.38520307  0.70305827  0.55709830  1.0
  F  F4771  1  0.38520307  0.79396736  0.55709830  1.0
  F  F4772  1  0.38520307  0.88487645  0.55709830  1.0
  F  F4773  1  0.38520307  0.97578554  0.55709830  1.0
  F  F4774  1  0.47611216  0.06669463  0.55709830  1.0
  F  F4775  1  0.47611216  0.15760372  0.55709830  1.0
  F  F4776  1  0.47611216  0.24851281  0.55709830  1.0
  F  F4777  1  0.47611216  0.33942191  0.55709830  1.0
  F  F4778  1  0.47611216  0.43033100  0.55709830  1.0
  F  F4779  1  0.47611216  0.52124009  0.55709830  1.0
  F  F4780  1  0.47611216  0.61214918  0.55709830  1.0
  F  F4781  1  0.47611216  0.70305827  0.55709830  1.0
  F  F4782  1  0.47611216  0.79396736  0.55709830  1.0
  F  F4783  1  0.47611216  0.88487645  0.55709830  1.0
  F  F4784  1  0.47611216  0.97578554  0.55709830  1.0
  F  F4785  1  0.56702125  0.06669463  0.55709830  1.0
  F  F4786  1  0.56702125  0.15760372  0.55709830  1.0
  F  F4787  1  0.56702125  0.24851281  0.55709830  1.0
  F  F4788  1  0.56702125  0.33942191  0.55709830  1.0
  F  F4789  1  0.56702125  0.43033100  0.55709830  1.0
  F  F4790  1  0.56702125  0.52124009  0.55709830  1.0
  F  F4791  1  0.56702125  0.61214918  0.55709830  1.0
  F  F4792  1  0.56702125  0.70305827  0.55709830  1.0
  F  F4793  1  0.56702125  0.79396736  0.55709830  1.0
  F  F4794  1  0.56702125  0.88487645  0.55709830  1.0
  F  F4795  1  0.56702125  0.97578554  0.55709830  1.0
  F  F4796  1  0.65793034  0.06669463  0.55709830  1.0
  F  F4797  1  0.65793034  0.15760372  0.55709830  1.0
  F  F4798  1  0.65793034  0.24851281  0.55709830  1.0
  F  F4799  1  0.65793034  0.33942191  0.55709830  1.0
  F  F4800  1  0.65793034  0.43033100  0.55709830  1.0
  F  F4801  1  0.65793034  0.52124009  0.55709830  1.0
  F  F4802  1  0.65793034  0.61214918  0.55709830  1.0
  F  F4803  1  0.65793034  0.70305827  0.55709830  1.0
  F  F4804  1  0.65793034  0.79396736  0.55709830  1.0
  F  F4805  1  0.65793034  0.88487645  0.55709830  1.0
  F  F4806  1  0.65793034  0.97578554  0.55709830  1.0
  F  F4807  1  0.74883943  0.06669463  0.55709830  1.0
  F  F4808  1  0.74883943  0.15760372  0.55709830  1.0
  F  F4809  1  0.74883943  0.24851281  0.55709830  1.0
  F  F4810  1  0.74883943  0.33942191  0.55709830  1.0
  F  F4811  1  0.74883943  0.43033100  0.55709830  1.0
  F  F4812  1  0.74883943  0.52124009  0.55709830  1.0
  F  F4813  1  0.74883943  0.61214918  0.55709830  1.0
  F  F4814  1  0.74883943  0.70305827  0.55709830  1.0
  F  F4815  1  0.74883943  0.79396736  0.55709830  1.0
  F  F4816  1  0.74883943  0.88487645  0.55709830  1.0
  F  F4817  1  0.74883943  0.97578554  0.55709830  1.0
  F  F4818  1  0.83974852  0.06669463  0.55709830  1.0
  F  F4819  1  0.83974852  0.15760372  0.55709830  1.0
  F  F4820  1  0.83974852  0.24851281  0.55709830  1.0
  F  F4821  1  0.83974852  0.33942191  0.55709830  1.0
  F  F4822  1  0.83974852  0.43033100  0.55709830  1.0
  F  F4823  1  0.83974852  0.52124009  0.55709830  1.0
  F  F4824  1  0.83974852  0.61214918  0.55709830  1.0
  F  F4825  1  0.83974852  0.70305827  0.55709830  1.0
  F  F4826  1  0.83974852  0.79396736  0.55709830  1.0
  F  F4827  1  0.83974852  0.88487645  0.55709830  1.0
  F  F4828  1  0.83974852  0.97578554  0.55709830  1.0
  F  F4829  1  0.93065762  0.06669463  0.55709830  1.0
  F  F4830  1  0.93065762  0.15760372  0.55709830  1.0
  F  F4831  1  0.93065762  0.24851281  0.55709830  1.0
  F  F4832  1  0.93065762  0.33942191  0.55709830  1.0
  F  F4833  1  0.93065762  0.43033100  0.55709830  1.0
  F  F4834  1  0.93065762  0.52124009  0.55709830  1.0
  F  F4835  1  0.93065762  0.61214918  0.55709830  1.0
  F  F4836  1  0.93065762  0.70305827  0.55709830  1.0
  F  F4837  1  0.93065762  0.79396736  0.55709830  1.0
  F  F4838  1  0.93065762  0.88487645  0.55709830  1.0
  F  F4839  1  0.93065762  0.97578554  0.55709830  1.0
  F  F4840  1  0.04530487  0.04828615  0.51988685  1.0
  F  F4841  1  0.04530487  0.13919524  0.51988685  1.0
  F  F4842  1  0.04530487  0.23010433  0.51988685  1.0
  F  F4843  1  0.04530487  0.32101342  0.51988685  1.0
  F  F4844  1  0.04530487  0.41192251  0.51988685  1.0
  F  F4845  1  0.04530487  0.50283160  0.51988685  1.0
  F  F4846  1  0.04530487  0.59374070  0.51988685  1.0
  F  F4847  1  0.04530487  0.68464979  0.51988685  1.0
  F  F4848  1  0.04530487  0.77555888  0.51988685  1.0
  F  F4849  1  0.04530487  0.86646797  0.51988685  1.0
  F  F4850  1  0.04530487  0.95737706  0.51988685  1.0
  F  F4851  1  0.13621396  0.04828615  0.51988685  1.0
  F  F4852  1  0.13621396  0.13919524  0.51988685  1.0
  F  F4853  1  0.13621396  0.23010433  0.51988685  1.0
  F  F4854  1  0.13621396  0.32101342  0.51988685  1.0
  F  F4855  1  0.13621396  0.41192251  0.51988685  1.0
  F  F4856  1  0.13621396  0.50283160  0.51988685  1.0
  F  F4857  1  0.13621396  0.59374070  0.51988685  1.0
  F  F4858  1  0.13621396  0.68464979  0.51988685  1.0
  F  F4859  1  0.13621396  0.77555888  0.51988685  1.0
  F  F4860  1  0.13621396  0.86646797  0.51988685  1.0
  F  F4861  1  0.13621396  0.95737706  0.51988685  1.0
  F  F4862  1  0.22712305  0.04828615  0.51988685  1.0
  F  F4863  1  0.22712305  0.13919524  0.51988685  1.0
  F  F4864  1  0.22712305  0.23010433  0.51988685  1.0
  F  F4865  1  0.22712305  0.32101342  0.51988685  1.0
  F  F4866  1  0.22712305  0.41192251  0.51988685  1.0
  F  F4867  1  0.22712305  0.50283160  0.51988685  1.0
  F  F4868  1  0.22712305  0.59374070  0.51988685  1.0
  F  F4869  1  0.22712305  0.68464979  0.51988685  1.0
  F  F4870  1  0.22712305  0.77555888  0.51988685  1.0
  F  F4871  1  0.22712305  0.86646797  0.51988685  1.0
  F  F4872  1  0.22712305  0.95737706  0.51988685  1.0
  F  F4873  1  0.31803214  0.04828615  0.51988685  1.0
  F  F4874  1  0.31803214  0.13919524  0.51988685  1.0
  F  F4875  1  0.31803214  0.23010433  0.51988685  1.0
  F  F4876  1  0.31803214  0.32101342  0.51988685  1.0
  F  F4877  1  0.31803214  0.41192251  0.51988685  1.0
  F  F4878  1  0.31803214  0.50283160  0.51988685  1.0
  F  F4879  1  0.31803214  0.59374070  0.51988685  1.0
  F  F4880  1  0.31803214  0.68464979  0.51988685  1.0
  F  F4881  1  0.31803214  0.77555888  0.51988685  1.0
  F  F4882  1  0.31803214  0.86646797  0.51988685  1.0
  F  F4883  1  0.31803214  0.95737706  0.51988685  1.0
  F  F4884  1  0.40894123  0.04828615  0.51988685  1.0
  F  F4885  1  0.40894123  0.13919524  0.51988685  1.0
  F  F4886  1  0.40894123  0.23010433  0.51988685  1.0
  F  F4887  1  0.40894123  0.32101342  0.51988685  1.0
  F  F4888  1  0.40894123  0.41192251  0.51988685  1.0
  F  F4889  1  0.40894123  0.50283160  0.51988685  1.0
  F  F4890  1  0.40894123  0.59374070  0.51988685  1.0
  F  F4891  1  0.40894123  0.68464979  0.51988685  1.0
  F  F4892  1  0.40894123  0.77555888  0.51988685  1.0
  F  F4893  1  0.40894123  0.86646797  0.51988685  1.0
  F  F4894  1  0.40894123  0.95737706  0.51988685  1.0
  F  F4895  1  0.49985032  0.04828615  0.51988685  1.0
  F  F4896  1  0.49985032  0.13919524  0.51988685  1.0
  F  F4897  1  0.49985032  0.23010433  0.51988685  1.0
  F  F4898  1  0.49985032  0.32101342  0.51988685  1.0
  F  F4899  1  0.49985032  0.41192251  0.51988685  1.0
  F  F4900  1  0.49985032  0.50283160  0.51988685  1.0
  F  F4901  1  0.49985032  0.59374070  0.51988685  1.0
  F  F4902  1  0.49985032  0.68464979  0.51988685  1.0
  F  F4903  1  0.49985032  0.77555888  0.51988685  1.0
  F  F4904  1  0.49985032  0.86646797  0.51988685  1.0
  F  F4905  1  0.49985032  0.95737706  0.51988685  1.0
  F  F4906  1  0.59075941  0.04828615  0.51988685  1.0
  F  F4907  1  0.59075941  0.13919524  0.51988685  1.0
  F  F4908  1  0.59075941  0.23010433  0.51988685  1.0
  F  F4909  1  0.59075941  0.32101342  0.51988685  1.0
  F  F4910  1  0.59075941  0.41192251  0.51988685  1.0
  F  F4911  1  0.59075941  0.50283160  0.51988685  1.0
  F  F4912  1  0.59075941  0.59374070  0.51988685  1.0
  F  F4913  1  0.59075941  0.68464979  0.51988685  1.0
  F  F4914  1  0.59075941  0.77555888  0.51988685  1.0
  F  F4915  1  0.59075941  0.86646797  0.51988685  1.0
  F  F4916  1  0.59075941  0.95737706  0.51988685  1.0
  F  F4917  1  0.68166850  0.04828615  0.51988685  1.0
  F  F4918  1  0.68166850  0.13919524  0.51988685  1.0
  F  F4919  1  0.68166850  0.23010433  0.51988685  1.0
  F  F4920  1  0.68166850  0.32101342  0.51988685  1.0
  F  F4921  1  0.68166850  0.41192251  0.51988685  1.0
  F  F4922  1  0.68166850  0.50283160  0.51988685  1.0
  F  F4923  1  0.68166850  0.59374070  0.51988685  1.0
  F  F4924  1  0.68166850  0.68464979  0.51988685  1.0
  F  F4925  1  0.68166850  0.77555888  0.51988685  1.0
  F  F4926  1  0.68166850  0.86646797  0.51988685  1.0
  F  F4927  1  0.68166850  0.95737706  0.51988685  1.0
  F  F4928  1  0.77257760  0.04828615  0.51988685  1.0
  F  F4929  1  0.77257760  0.13919524  0.51988685  1.0
  F  F4930  1  0.77257760  0.23010433  0.51988685  1.0
  F  F4931  1  0.77257760  0.32101342  0.51988685  1.0
  F  F4932  1  0.77257760  0.41192251  0.51988685  1.0
  F  F4933  1  0.77257760  0.50283160  0.51988685  1.0
  F  F4934  1  0.77257760  0.59374070  0.51988685  1.0
  F  F4935  1  0.77257760  0.68464979  0.51988685  1.0
  F  F4936  1  0.77257760  0.77555888  0.51988685  1.0
  F  F4937  1  0.77257760  0.86646797  0.51988685  1.0
  F  F4938  1  0.77257760  0.95737706  0.51988685  1.0
  F  F4939  1  0.86348669  0.04828615  0.51988685  1.0
  F  F4940  1  0.86348669  0.13919524  0.51988685  1.0
  F  F4941  1  0.86348669  0.23010433  0.51988685  1.0
  F  F4942  1  0.86348669  0.32101342  0.51988685  1.0
  F  F4943  1  0.86348669  0.41192251  0.51988685  1.0
  F  F4944  1  0.86348669  0.50283160  0.51988685  1.0
  F  F4945  1  0.86348669  0.59374070  0.51988685  1.0
  F  F4946  1  0.86348669  0.68464979  0.51988685  1.0
  F  F4947  1  0.86348669  0.77555888  0.51988685  1.0
  F  F4948  1  0.86348669  0.86646797  0.51988685  1.0
  F  F4949  1  0.86348669  0.95737706  0.51988685  1.0
  F  F4950  1  0.95439578  0.04828615  0.51988685  1.0
  F  F4951  1  0.95439578  0.13919524  0.51988685  1.0
  F  F4952  1  0.95439578  0.23010433  0.51988685  1.0
  F  F4953  1  0.95439578  0.32101342  0.51988685  1.0
  F  F4954  1  0.95439578  0.41192251  0.51988685  1.0
  F  F4955  1  0.95439578  0.50283160  0.51988685  1.0
  F  F4956  1  0.95439578  0.59374070  0.51988685  1.0
  F  F4957  1  0.95439578  0.68464979  0.51988685  1.0
  F  F4958  1  0.95439578  0.77555888  0.51988685  1.0
  F  F4959  1  0.95439578  0.86646797  0.51988685  1.0
  F  F4960  1  0.95439578  0.95737706  0.51988685  1.0
  F  F4961  1  0.09075941  0.00283160  0.59131542  1.0
  F  F4962  1  0.09075941  0.09374070  0.59131542  1.0
  F  F4963  1  0.09075941  0.18464979  0.59131542  1.0
  F  F4964  1  0.09075941  0.27555888  0.59131542  1.0
  F  F4965  1  0.09075941  0.36646797  0.59131542  1.0
  F  F4966  1  0.09075941  0.45737706  0.59131542  1.0
  F  F4967  1  0.09075941  0.54828615  0.59131542  1.0
  F  F4968  1  0.09075941  0.63919524  0.59131542  1.0
  F  F4969  1  0.09075941  0.73010433  0.59131542  1.0
  F  F4970  1  0.09075941  0.82101342  0.59131542  1.0
  F  F4971  1  0.09075941  0.91192251  0.59131542  1.0
  F  F4972  1  0.18166850  0.00283160  0.59131542  1.0
  F  F4973  1  0.18166850  0.09374070  0.59131542  1.0
  F  F4974  1  0.18166850  0.18464979  0.59131542  1.0
  F  F4975  1  0.18166850  0.27555888  0.59131542  1.0
  F  F4976  1  0.18166850  0.36646797  0.59131542  1.0
  F  F4977  1  0.18166850  0.45737706  0.59131542  1.0
  F  F4978  1  0.18166850  0.54828615  0.59131542  1.0
  F  F4979  1  0.18166850  0.63919524  0.59131542  1.0
  F  F4980  1  0.18166850  0.73010433  0.59131542  1.0
  F  F4981  1  0.18166850  0.82101342  0.59131542  1.0
  F  F4982  1  0.18166850  0.91192251  0.59131542  1.0
  F  F4983  1  0.27257760  0.00283160  0.59131542  1.0
  F  F4984  1  0.27257760  0.09374070  0.59131542  1.0
  F  F4985  1  0.27257760  0.18464979  0.59131542  1.0
  F  F4986  1  0.27257760  0.27555888  0.59131542  1.0
  F  F4987  1  0.27257760  0.36646797  0.59131542  1.0
  F  F4988  1  0.27257760  0.45737706  0.59131542  1.0
  F  F4989  1  0.27257760  0.54828615  0.59131542  1.0
  F  F4990  1  0.27257760  0.63919524  0.59131542  1.0
  F  F4991  1  0.27257760  0.73010433  0.59131542  1.0
  F  F4992  1  0.27257760  0.82101342  0.59131542  1.0
  F  F4993  1  0.27257760  0.91192251  0.59131542  1.0
  F  F4994  1  0.36348669  0.00283160  0.59131542  1.0
  F  F4995  1  0.36348669  0.09374070  0.59131542  1.0
  F  F4996  1  0.36348669  0.18464979  0.59131542  1.0
  F  F4997  1  0.36348669  0.27555888  0.59131542  1.0
  F  F4998  1  0.36348669  0.36646797  0.59131542  1.0
  F  F4999  1  0.36348669  0.45737706  0.59131542  1.0
  F  F5000  1  0.36348669  0.54828615  0.59131542  1.0
  F  F5001  1  0.36348669  0.63919524  0.59131542  1.0
  F  F5002  1  0.36348669  0.73010433  0.59131542  1.0
  F  F5003  1  0.36348669  0.82101342  0.59131542  1.0
  F  F5004  1  0.36348669  0.91192251  0.59131542  1.0
  F  F5005  1  0.45439578  0.00283160  0.59131542  1.0
  F  F5006  1  0.45439578  0.09374070  0.59131542  1.0
  F  F5007  1  0.45439578  0.18464979  0.59131542  1.0
  F  F5008  1  0.45439578  0.27555888  0.59131542  1.0
  F  F5009  1  0.45439578  0.36646797  0.59131542  1.0
  F  F5010  1  0.45439578  0.45737706  0.59131542  1.0
  F  F5011  1  0.45439578  0.54828615  0.59131542  1.0
  F  F5012  1  0.45439578  0.63919524  0.59131542  1.0
  F  F5013  1  0.45439578  0.73010433  0.59131542  1.0
  F  F5014  1  0.45439578  0.82101342  0.59131542  1.0
  F  F5015  1  0.45439578  0.91192251  0.59131542  1.0
  F  F5016  1  0.54530487  0.00283160  0.59131542  1.0
  F  F5017  1  0.54530487  0.09374070  0.59131542  1.0
  F  F5018  1  0.54530487  0.18464979  0.59131542  1.0
  F  F5019  1  0.54530487  0.27555888  0.59131542  1.0
  F  F5020  1  0.54530487  0.36646797  0.59131542  1.0
  F  F5021  1  0.54530487  0.45737706  0.59131542  1.0
  F  F5022  1  0.54530487  0.54828615  0.59131542  1.0
  F  F5023  1  0.54530487  0.63919524  0.59131542  1.0
  F  F5024  1  0.54530487  0.73010433  0.59131542  1.0
  F  F5025  1  0.54530487  0.82101342  0.59131542  1.0
  F  F5026  1  0.54530487  0.91192251  0.59131542  1.0
  F  F5027  1  0.63621396  0.00283160  0.59131542  1.0
  F  F5028  1  0.63621396  0.09374070  0.59131542  1.0
  F  F5029  1  0.63621396  0.18464979  0.59131542  1.0
  F  F5030  1  0.63621396  0.27555888  0.59131542  1.0
  F  F5031  1  0.63621396  0.36646797  0.59131542  1.0
  F  F5032  1  0.63621396  0.45737706  0.59131542  1.0
  F  F5033  1  0.63621396  0.54828615  0.59131542  1.0
  F  F5034  1  0.63621396  0.63919524  0.59131542  1.0
  F  F5035  1  0.63621396  0.73010433  0.59131542  1.0
  F  F5036  1  0.63621396  0.82101342  0.59131542  1.0
  F  F5037  1  0.63621396  0.91192251  0.59131542  1.0
  F  F5038  1  0.72712305  0.00283160  0.59131542  1.0
  F  F5039  1  0.72712305  0.09374070  0.59131542  1.0
  F  F5040  1  0.72712305  0.18464979  0.59131542  1.0
  F  F5041  1  0.72712305  0.27555888  0.59131542  1.0
  F  F5042  1  0.72712305  0.36646797  0.59131542  1.0
  F  F5043  1  0.72712305  0.45737706  0.59131542  1.0
  F  F5044  1  0.72712305  0.54828615  0.59131542  1.0
  F  F5045  1  0.72712305  0.63919524  0.59131542  1.0
  F  F5046  1  0.72712305  0.73010433  0.59131542  1.0
  F  F5047  1  0.72712305  0.82101342  0.59131542  1.0
  F  F5048  1  0.72712305  0.91192251  0.59131542  1.0
  F  F5049  1  0.81803214  0.00283160  0.59131542  1.0
  F  F5050  1  0.81803214  0.09374070  0.59131542  1.0
  F  F5051  1  0.81803214  0.18464979  0.59131542  1.0
  F  F5052  1  0.81803214  0.27555888  0.59131542  1.0
  F  F5053  1  0.81803214  0.36646797  0.59131542  1.0
  F  F5054  1  0.81803214  0.45737706  0.59131542  1.0
  F  F5055  1  0.81803214  0.54828615  0.59131542  1.0
  F  F5056  1  0.81803214  0.63919524  0.59131542  1.0
  F  F5057  1  0.81803214  0.73010433  0.59131542  1.0
  F  F5058  1  0.81803214  0.82101342  0.59131542  1.0
  F  F5059  1  0.81803214  0.91192251  0.59131542  1.0
  F  F5060  1  0.90894123  0.00283160  0.59131542  1.0
  F  F5061  1  0.90894123  0.09374070  0.59131542  1.0
  F  F5062  1  0.90894123  0.18464979  0.59131542  1.0
  F  F5063  1  0.90894123  0.27555888  0.59131542  1.0
  F  F5064  1  0.90894123  0.36646797  0.59131542  1.0
  F  F5065  1  0.90894123  0.45737706  0.59131542  1.0
  F  F5066  1  0.90894123  0.54828615  0.59131542  1.0
  F  F5067  1  0.90894123  0.63919524  0.59131542  1.0
  F  F5068  1  0.90894123  0.73010433  0.59131542  1.0
  F  F5069  1  0.90894123  0.82101342  0.59131542  1.0
  F  F5070  1  0.90894123  0.91192251  0.59131542  1.0
  F  F5071  1  0.99985032  0.00283160  0.59131542  1.0
  F  F5072  1  0.99985032  0.09374070  0.59131542  1.0
  F  F5073  1  0.99985032  0.18464979  0.59131542  1.0
  F  F5074  1  0.99985032  0.27555888  0.59131542  1.0
  F  F5075  1  0.99985032  0.36646797  0.59131542  1.0
  F  F5076  1  0.99985032  0.45737706  0.59131542  1.0
  F  F5077  1  0.99985032  0.54828615  0.59131542  1.0
  F  F5078  1  0.99985032  0.63919524  0.59131542  1.0
  F  F5079  1  0.99985032  0.73010433  0.59131542  1.0
  F  F5080  1  0.99985032  0.82101342  0.59131542  1.0
  F  F5081  1  0.99985032  0.91192251  0.59131542  1.0
  F  F5082  1  0.02176464  0.02451434  0.48582494  1.0
  F  F5083  1  0.02176464  0.11542343  0.48582494  1.0
  F  F5084  1  0.02176464  0.20633252  0.48582494  1.0
  F  F5085  1  0.02176464  0.29724161  0.48582494  1.0
  F  F5086  1  0.02176464  0.38815070  0.48582494  1.0
  F  F5087  1  0.02176464  0.47905979  0.48582494  1.0
  F  F5088  1  0.02176464  0.56996888  0.48582494  1.0
  F  F5089  1  0.02176464  0.66087798  0.48582494  1.0
  F  F5090  1  0.02176464  0.75178707  0.48582494  1.0
  F  F5091  1  0.02176464  0.84269616  0.48582494  1.0
  F  F5092  1  0.02176464  0.93360525  0.48582494  1.0
  F  F5093  1  0.11267373  0.02451434  0.48582494  1.0
  F  F5094  1  0.11267373  0.11542343  0.48582494  1.0
  F  F5095  1  0.11267373  0.20633252  0.48582494  1.0
  F  F5096  1  0.11267373  0.29724161  0.48582494  1.0
  F  F5097  1  0.11267373  0.38815070  0.48582494  1.0
  F  F5098  1  0.11267373  0.47905979  0.48582494  1.0
  F  F5099  1  0.11267373  0.56996888  0.48582494  1.0
  F  F5100  1  0.11267373  0.66087798  0.48582494  1.0
  F  F5101  1  0.11267373  0.75178707  0.48582494  1.0
  F  F5102  1  0.11267373  0.84269616  0.48582494  1.0
  F  F5103  1  0.11267373  0.93360525  0.48582494  1.0
  F  F5104  1  0.20358282  0.02451434  0.48582494  1.0
  F  F5105  1  0.20358282  0.11542343  0.48582494  1.0
  F  F5106  1  0.20358282  0.20633252  0.48582494  1.0
  F  F5107  1  0.20358282  0.29724161  0.48582494  1.0
  F  F5108  1  0.20358282  0.38815070  0.48582494  1.0
  F  F5109  1  0.20358282  0.47905979  0.48582494  1.0
  F  F5110  1  0.20358282  0.56996888  0.48582494  1.0
  F  F5111  1  0.20358282  0.66087798  0.48582494  1.0
  F  F5112  1  0.20358282  0.75178707  0.48582494  1.0
  F  F5113  1  0.20358282  0.84269616  0.48582494  1.0
  F  F5114  1  0.20358282  0.93360525  0.48582494  1.0
  F  F5115  1  0.29449191  0.02451434  0.48582494  1.0
  F  F5116  1  0.29449191  0.11542343  0.48582494  1.0
  F  F5117  1  0.29449191  0.20633252  0.48582494  1.0
  F  F5118  1  0.29449191  0.29724161  0.48582494  1.0
  F  F5119  1  0.29449191  0.38815070  0.48582494  1.0
  F  F5120  1  0.29449191  0.47905979  0.48582494  1.0
  F  F5121  1  0.29449191  0.56996888  0.48582494  1.0
  F  F5122  1  0.29449191  0.66087798  0.48582494  1.0
  F  F5123  1  0.29449191  0.75178707  0.48582494  1.0
  F  F5124  1  0.29449191  0.84269616  0.48582494  1.0
  F  F5125  1  0.29449191  0.93360525  0.48582494  1.0
  F  F5126  1  0.38540101  0.02451434  0.48582494  1.0
  F  F5127  1  0.38540101  0.11542343  0.48582494  1.0
  F  F5128  1  0.38540101  0.20633252  0.48582494  1.0
  F  F5129  1  0.38540101  0.29724161  0.48582494  1.0
  F  F5130  1  0.38540101  0.38815070  0.48582494  1.0
  F  F5131  1  0.38540101  0.47905979  0.48582494  1.0
  F  F5132  1  0.38540101  0.56996888  0.48582494  1.0
  F  F5133  1  0.38540101  0.66087798  0.48582494  1.0
  F  F5134  1  0.38540101  0.75178707  0.48582494  1.0
  F  F5135  1  0.38540101  0.84269616  0.48582494  1.0
  F  F5136  1  0.38540101  0.93360525  0.48582494  1.0
  F  F5137  1  0.47631010  0.02451434  0.48582494  1.0
  F  F5138  1  0.47631010  0.11542343  0.48582494  1.0
  F  F5139  1  0.47631010  0.20633252  0.48582494  1.0
  F  F5140  1  0.47631010  0.29724161  0.48582494  1.0
  F  F5141  1  0.47631010  0.38815070  0.48582494  1.0
  F  F5142  1  0.47631010  0.47905979  0.48582494  1.0
  F  F5143  1  0.47631010  0.56996888  0.48582494  1.0
  F  F5144  1  0.47631010  0.66087798  0.48582494  1.0
  F  F5145  1  0.47631010  0.75178707  0.48582494  1.0
  F  F5146  1  0.47631010  0.84269616  0.48582494  1.0
  F  F5147  1  0.47631010  0.93360525  0.48582494  1.0
  F  F5148  1  0.56721919  0.02451434  0.48582494  1.0
  F  F5149  1  0.56721919  0.11542343  0.48582494  1.0
  F  F5150  1  0.56721919  0.20633252  0.48582494  1.0
  F  F5151  1  0.56721919  0.29724161  0.48582494  1.0
  F  F5152  1  0.56721919  0.38815070  0.48582494  1.0
  F  F5153  1  0.56721919  0.47905979  0.48582494  1.0
  F  F5154  1  0.56721919  0.56996888  0.48582494  1.0
  F  F5155  1  0.56721919  0.66087798  0.48582494  1.0
  F  F5156  1  0.56721919  0.75178707  0.48582494  1.0
  F  F5157  1  0.56721919  0.84269616  0.48582494  1.0
  F  F5158  1  0.56721919  0.93360525  0.48582494  1.0
  F  F5159  1  0.65812828  0.02451434  0.48582494  1.0
  F  F5160  1  0.65812828  0.11542343  0.48582494  1.0
  F  F5161  1  0.65812828  0.20633252  0.48582494  1.0
  F  F5162  1  0.65812828  0.29724161  0.48582494  1.0
  F  F5163  1  0.65812828  0.38815070  0.48582494  1.0
  F  F5164  1  0.65812828  0.47905979  0.48582494  1.0
  F  F5165  1  0.65812828  0.56996888  0.48582494  1.0
  F  F5166  1  0.65812828  0.66087798  0.48582494  1.0
  F  F5167  1  0.65812828  0.75178707  0.48582494  1.0
  F  F5168  1  0.65812828  0.84269616  0.48582494  1.0
  F  F5169  1  0.65812828  0.93360525  0.48582494  1.0
  F  F5170  1  0.74903737  0.02451434  0.48582494  1.0
  F  F5171  1  0.74903737  0.11542343  0.48582494  1.0
  F  F5172  1  0.74903737  0.20633252  0.48582494  1.0
  F  F5173  1  0.74903737  0.29724161  0.48582494  1.0
  F  F5174  1  0.74903737  0.38815070  0.48582494  1.0
  F  F5175  1  0.74903737  0.47905979  0.48582494  1.0
  F  F5176  1  0.74903737  0.56996888  0.48582494  1.0
  F  F5177  1  0.74903737  0.66087798  0.48582494  1.0
  F  F5178  1  0.74903737  0.75178707  0.48582494  1.0
  F  F5179  1  0.74903737  0.84269616  0.48582494  1.0
  F  F5180  1  0.74903737  0.93360525  0.48582494  1.0
  F  F5181  1  0.83994646  0.02451434  0.48582494  1.0
  F  F5182  1  0.83994646  0.11542343  0.48582494  1.0
  F  F5183  1  0.83994646  0.20633252  0.48582494  1.0
  F  F5184  1  0.83994646  0.29724161  0.48582494  1.0
  F  F5185  1  0.83994646  0.38815070  0.48582494  1.0
  F  F5186  1  0.83994646  0.47905979  0.48582494  1.0
  F  F5187  1  0.83994646  0.56996888  0.48582494  1.0
  F  F5188  1  0.83994646  0.66087798  0.48582494  1.0
  F  F5189  1  0.83994646  0.75178707  0.48582494  1.0
  F  F5190  1  0.83994646  0.84269616  0.48582494  1.0
  F  F5191  1  0.83994646  0.93360525  0.48582494  1.0
  F  F5192  1  0.93085555  0.02451434  0.48582494  1.0
  F  F5193  1  0.93085555  0.11542343  0.48582494  1.0
  F  F5194  1  0.93085555  0.20633252  0.48582494  1.0
  F  F5195  1  0.93085555  0.29724161  0.48582494  1.0
  F  F5196  1  0.93085555  0.38815070  0.48582494  1.0
  F  F5197  1  0.93085555  0.47905979  0.48582494  1.0
  F  F5198  1  0.93085555  0.56996888  0.48582494  1.0
  F  F5199  1  0.93085555  0.66087798  0.48582494  1.0
  F  F5200  1  0.93085555  0.75178707  0.48582494  1.0
  F  F5201  1  0.93085555  0.84269616  0.48582494  1.0
  F  F5202  1  0.93085555  0.93360525  0.48582494  1.0
  F  F5203  1  0.06721919  0.06996888  0.55725351  1.0
  F  F5204  1  0.06721919  0.16087798  0.55725351  1.0
  F  F5205  1  0.06721919  0.25178707  0.55725351  1.0
  F  F5206  1  0.06721919  0.34269616  0.55725351  1.0
  F  F5207  1  0.06721919  0.43360525  0.55725351  1.0
  F  F5208  1  0.06721919  0.52451434  0.55725351  1.0
  F  F5209  1  0.06721919  0.61542343  0.55725351  1.0
  F  F5210  1  0.06721919  0.70633252  0.55725351  1.0
  F  F5211  1  0.06721919  0.79724161  0.55725351  1.0
  F  F5212  1  0.06721919  0.88815070  0.55725351  1.0
  F  F5213  1  0.06721919  0.97905979  0.55725351  1.0
  F  F5214  1  0.15812828  0.06996888  0.55725351  1.0
  F  F5215  1  0.15812828  0.16087798  0.55725351  1.0
  F  F5216  1  0.15812828  0.25178707  0.55725351  1.0
  F  F5217  1  0.15812828  0.34269616  0.55725351  1.0
  F  F5218  1  0.15812828  0.43360525  0.55725351  1.0
  F  F5219  1  0.15812828  0.52451434  0.55725351  1.0
  F  F5220  1  0.15812828  0.61542343  0.55725351  1.0
  F  F5221  1  0.15812828  0.70633252  0.55725351  1.0
  F  F5222  1  0.15812828  0.79724161  0.55725351  1.0
  F  F5223  1  0.15812828  0.88815070  0.55725351  1.0
  F  F5224  1  0.15812828  0.97905979  0.55725351  1.0
  F  F5225  1  0.24903737  0.06996888  0.55725351  1.0
  F  F5226  1  0.24903737  0.16087798  0.55725351  1.0
  F  F5227  1  0.24903737  0.25178707  0.55725351  1.0
  F  F5228  1  0.24903737  0.34269616  0.55725351  1.0
  F  F5229  1  0.24903737  0.43360525  0.55725351  1.0
  F  F5230  1  0.24903737  0.52451434  0.55725351  1.0
  F  F5231  1  0.24903737  0.61542343  0.55725351  1.0
  F  F5232  1  0.24903737  0.70633252  0.55725351  1.0
  F  F5233  1  0.24903737  0.79724161  0.55725351  1.0
  F  F5234  1  0.24903737  0.88815070  0.55725351  1.0
  F  F5235  1  0.24903737  0.97905979  0.55725351  1.0
  F  F5236  1  0.33994646  0.06996888  0.55725351  1.0
  F  F5237  1  0.33994646  0.16087798  0.55725351  1.0
  F  F5238  1  0.33994646  0.25178707  0.55725351  1.0
  F  F5239  1  0.33994646  0.34269616  0.55725351  1.0
  F  F5240  1  0.33994646  0.43360525  0.55725351  1.0
  F  F5241  1  0.33994646  0.52451434  0.55725351  1.0
  F  F5242  1  0.33994646  0.61542343  0.55725351  1.0
  F  F5243  1  0.33994646  0.70633252  0.55725351  1.0
  F  F5244  1  0.33994646  0.79724161  0.55725351  1.0
  F  F5245  1  0.33994646  0.88815070  0.55725351  1.0
  F  F5246  1  0.33994646  0.97905979  0.55725351  1.0
  F  F5247  1  0.43085555  0.06996888  0.55725351  1.0
  F  F5248  1  0.43085555  0.16087798  0.55725351  1.0
  F  F5249  1  0.43085555  0.25178707  0.55725351  1.0
  F  F5250  1  0.43085555  0.34269616  0.55725351  1.0
  F  F5251  1  0.43085555  0.43360525  0.55725351  1.0
  F  F5252  1  0.43085555  0.52451434  0.55725351  1.0
  F  F5253  1  0.43085555  0.61542343  0.55725351  1.0
  F  F5254  1  0.43085555  0.70633252  0.55725351  1.0
  F  F5255  1  0.43085555  0.79724161  0.55725351  1.0
  F  F5256  1  0.43085555  0.88815070  0.55725351  1.0
  F  F5257  1  0.43085555  0.97905979  0.55725351  1.0
  F  F5258  1  0.52176464  0.06996888  0.55725351  1.0
  F  F5259  1  0.52176464  0.16087798  0.55725351  1.0
  F  F5260  1  0.52176464  0.25178707  0.55725351  1.0
  F  F5261  1  0.52176464  0.34269616  0.55725351  1.0
  F  F5262  1  0.52176464  0.43360525  0.55725351  1.0
  F  F5263  1  0.52176464  0.52451434  0.55725351  1.0
  F  F5264  1  0.52176464  0.61542343  0.55725351  1.0
  F  F5265  1  0.52176464  0.70633252  0.55725351  1.0
  F  F5266  1  0.52176464  0.79724161  0.55725351  1.0
  F  F5267  1  0.52176464  0.88815070  0.55725351  1.0
  F  F5268  1  0.52176464  0.97905979  0.55725351  1.0
  F  F5269  1  0.61267373  0.06996888  0.55725351  1.0
  F  F5270  1  0.61267373  0.16087798  0.55725351  1.0
  F  F5271  1  0.61267373  0.25178707  0.55725351  1.0
  F  F5272  1  0.61267373  0.34269616  0.55725351  1.0
  F  F5273  1  0.61267373  0.43360525  0.55725351  1.0
  F  F5274  1  0.61267373  0.52451434  0.55725351  1.0
  F  F5275  1  0.61267373  0.61542343  0.55725351  1.0
  F  F5276  1  0.61267373  0.70633252  0.55725351  1.0
  F  F5277  1  0.61267373  0.79724161  0.55725351  1.0
  F  F5278  1  0.61267373  0.88815070  0.55725351  1.0
  F  F5279  1  0.61267373  0.97905979  0.55725351  1.0
  F  F5280  1  0.70358282  0.06996888  0.55725351  1.0
  F  F5281  1  0.70358282  0.16087798  0.55725351  1.0
  F  F5282  1  0.70358282  0.25178707  0.55725351  1.0
  F  F5283  1  0.70358282  0.34269616  0.55725351  1.0
  F  F5284  1  0.70358282  0.43360525  0.55725351  1.0
  F  F5285  1  0.70358282  0.52451434  0.55725351  1.0
  F  F5286  1  0.70358282  0.61542343  0.55725351  1.0
  F  F5287  1  0.70358282  0.70633252  0.55725351  1.0
  F  F5288  1  0.70358282  0.79724161  0.55725351  1.0
  F  F5289  1  0.70358282  0.88815070  0.55725351  1.0
  F  F5290  1  0.70358282  0.97905979  0.55725351  1.0
  F  F5291  1  0.79449192  0.06996888  0.55725351  1.0
  F  F5292  1  0.79449191  0.16087798  0.55725351  1.0
  F  F5293  1  0.79449191  0.25178707  0.55725351  1.0
  F  F5294  1  0.79449191  0.34269616  0.55725351  1.0
  F  F5295  1  0.79449192  0.43360525  0.55725351  1.0
  F  F5296  1  0.79449191  0.52451434  0.55725351  1.0
  F  F5297  1  0.79449191  0.61542343  0.55725351  1.0
  F  F5298  1  0.79449191  0.70633252  0.55725351  1.0
  F  F5299  1  0.79449191  0.79724161  0.55725351  1.0
  F  F5300  1  0.79449192  0.88815070  0.55725351  1.0
  F  F5301  1  0.79449191  0.97905979  0.55725351  1.0
  F  F5302  1  0.88540101  0.06996888  0.55725351  1.0
  F  F5303  1  0.88540101  0.16087798  0.55725351  1.0
  F  F5304  1  0.88540101  0.25178707  0.55725351  1.0
  F  F5305  1  0.88540101  0.34269616  0.55725351  1.0
  F  F5306  1  0.88540101  0.43360525  0.55725351  1.0
  F  F5307  1  0.88540101  0.52451434  0.55725351  1.0
  F  F5308  1  0.88540101  0.61542343  0.55725351  1.0
  F  F5309  1  0.88540101  0.70633252  0.55725351  1.0
  F  F5310  1  0.88540101  0.79724161  0.55725351  1.0
  F  F5311  1  0.88540101  0.88815070  0.55725351  1.0
  F  F5312  1  0.88540101  0.97905979  0.55725351  1.0
  F  F5313  1  0.97631010  0.06996888  0.55725351  1.0
  F  F5314  1  0.97631010  0.16087798  0.55725351  1.0
  F  F5315  1  0.97631010  0.25178707  0.55725351  1.0
  F  F5316  1  0.97631010  0.34269616  0.55725351  1.0
  F  F5317  1  0.97631010  0.43360525  0.55725351  1.0
  F  F5318  1  0.97631010  0.52451434  0.55725351  1.0
  F  F5319  1  0.97631010  0.61542343  0.55725351  1.0
  F  F5320  1  0.97631010  0.70633252  0.55725351  1.0
  F  F5321  1  0.97631010  0.79724161  0.55725351  1.0
  F  F5322  1  0.97631010  0.88815070  0.55725351  1.0
  F  F5323  1  0.97631010  0.97905979  0.55725351  1.0
  F  F5324  1  0.04560422  0.04262294  0.59036493  1.0
  F  F5325  1  0.04560422  0.13353203  0.59036493  1.0
  F  F5326  1  0.04560422  0.22444112  0.59036493  1.0
  F  F5327  1  0.04560422  0.31535021  0.59036493  1.0
  F  F5328  1  0.04560422  0.40625930  0.59036493  1.0
  F  F5329  1  0.04560422  0.49716840  0.59036493  1.0
  F  F5330  1  0.04560422  0.58807749  0.59036493  1.0
  F  F5331  1  0.04560422  0.67898658  0.59036493  1.0
  F  F5332  1  0.04560422  0.76989567  0.59036493  1.0
  F  F5333  1  0.04560422  0.86080476  0.59036493  1.0
  F  F5334  1  0.04560422  0.95171385  0.59036493  1.0
  F  F5335  1  0.13651331  0.04262294  0.59036493  1.0
  F  F5336  1  0.13651331  0.13353203  0.59036493  1.0
  F  F5337  1  0.13651331  0.22444112  0.59036493  1.0
  F  F5338  1  0.13651331  0.31535021  0.59036493  1.0
  F  F5339  1  0.13651331  0.40625930  0.59036493  1.0
  F  F5340  1  0.13651331  0.49716840  0.59036493  1.0
  F  F5341  1  0.13651331  0.58807749  0.59036493  1.0
  F  F5342  1  0.13651331  0.67898658  0.59036493  1.0
  F  F5343  1  0.13651331  0.76989567  0.59036493  1.0
  F  F5344  1  0.13651331  0.86080476  0.59036493  1.0
  F  F5345  1  0.13651331  0.95171385  0.59036493  1.0
  F  F5346  1  0.22742240  0.04262294  0.59036493  1.0
  F  F5347  1  0.22742240  0.13353203  0.59036493  1.0
  F  F5348  1  0.22742240  0.22444112  0.59036493  1.0
  F  F5349  1  0.22742240  0.31535021  0.59036493  1.0
  F  F5350  1  0.22742240  0.40625930  0.59036493  1.0
  F  F5351  1  0.22742240  0.49716840  0.59036493  1.0
  F  F5352  1  0.22742240  0.58807749  0.59036493  1.0
  F  F5353  1  0.22742240  0.67898658  0.59036493  1.0
  F  F5354  1  0.22742240  0.76989567  0.59036493  1.0
  F  F5355  1  0.22742240  0.86080476  0.59036493  1.0
  F  F5356  1  0.22742240  0.95171385  0.59036493  1.0
  F  F5357  1  0.31833150  0.04262294  0.59036493  1.0
  F  F5358  1  0.31833150  0.13353203  0.59036493  1.0
  F  F5359  1  0.31833150  0.22444112  0.59036493  1.0
  F  F5360  1  0.31833150  0.31535021  0.59036493  1.0
  F  F5361  1  0.31833150  0.40625930  0.59036493  1.0
  F  F5362  1  0.31833150  0.49716840  0.59036493  1.0
  F  F5363  1  0.31833150  0.58807749  0.59036493  1.0
  F  F5364  1  0.31833150  0.67898658  0.59036493  1.0
  F  F5365  1  0.31833150  0.76989567  0.59036493  1.0
  F  F5366  1  0.31833150  0.86080476  0.59036493  1.0
  F  F5367  1  0.31833150  0.95171385  0.59036493  1.0
  F  F5368  1  0.40924059  0.04262294  0.59036493  1.0
  F  F5369  1  0.40924059  0.13353203  0.59036493  1.0
  F  F5370  1  0.40924059  0.22444112  0.59036493  1.0
  F  F5371  1  0.40924059  0.31535021  0.59036493  1.0
  F  F5372  1  0.40924059  0.40625930  0.59036493  1.0
  F  F5373  1  0.40924059  0.49716840  0.59036493  1.0
  F  F5374  1  0.40924059  0.58807749  0.59036493  1.0
  F  F5375  1  0.40924059  0.67898658  0.59036493  1.0
  F  F5376  1  0.40924059  0.76989567  0.59036493  1.0
  F  F5377  1  0.40924059  0.86080476  0.59036493  1.0
  F  F5378  1  0.40924059  0.95171385  0.59036493  1.0
  F  F5379  1  0.50014968  0.04262294  0.59036493  1.0
  F  F5380  1  0.50014968  0.13353203  0.59036493  1.0
  F  F5381  1  0.50014968  0.22444112  0.59036493  1.0
  F  F5382  1  0.50014968  0.31535021  0.59036493  1.0
  F  F5383  1  0.50014968  0.40625930  0.59036493  1.0
  F  F5384  1  0.50014968  0.49716840  0.59036493  1.0
  F  F5385  1  0.50014968  0.58807749  0.59036493  1.0
  F  F5386  1  0.50014968  0.67898658  0.59036493  1.0
  F  F5387  1  0.50014968  0.76989567  0.59036493  1.0
  F  F5388  1  0.50014968  0.86080476  0.59036493  1.0
  F  F5389  1  0.50014968  0.95171385  0.59036493  1.0
  F  F5390  1  0.59105877  0.04262294  0.59036493  1.0
  F  F5391  1  0.59105877  0.13353203  0.59036493  1.0
  F  F5392  1  0.59105877  0.22444112  0.59036493  1.0
  F  F5393  1  0.59105877  0.31535021  0.59036493  1.0
  F  F5394  1  0.59105877  0.40625930  0.59036493  1.0
  F  F5395  1  0.59105877  0.49716840  0.59036493  1.0
  F  F5396  1  0.59105877  0.58807749  0.59036493  1.0
  F  F5397  1  0.59105877  0.67898658  0.59036493  1.0
  F  F5398  1  0.59105877  0.76989567  0.59036493  1.0
  F  F5399  1  0.59105877  0.86080476  0.59036493  1.0
  F  F5400  1  0.59105877  0.95171385  0.59036493  1.0
  F  F5401  1  0.68196786  0.04262294  0.59036493  1.0
  F  F5402  1  0.68196786  0.13353203  0.59036493  1.0
  F  F5403  1  0.68196786  0.22444112  0.59036493  1.0
  F  F5404  1  0.68196786  0.31535021  0.59036493  1.0
  F  F5405  1  0.68196786  0.40625930  0.59036493  1.0
  F  F5406  1  0.68196786  0.49716840  0.59036493  1.0
  F  F5407  1  0.68196786  0.58807749  0.59036493  1.0
  F  F5408  1  0.68196786  0.67898658  0.59036493  1.0
  F  F5409  1  0.68196786  0.76989567  0.59036493  1.0
  F  F5410  1  0.68196786  0.86080476  0.59036493  1.0
  F  F5411  1  0.68196786  0.95171385  0.59036493  1.0
  F  F5412  1  0.77287695  0.04262294  0.59036493  1.0
  F  F5413  1  0.77287695  0.13353203  0.59036493  1.0
  F  F5414  1  0.77287695  0.22444112  0.59036493  1.0
  F  F5415  1  0.77287695  0.31535021  0.59036493  1.0
  F  F5416  1  0.77287695  0.40625930  0.59036493  1.0
  F  F5417  1  0.77287695  0.49716840  0.59036493  1.0
  F  F5418  1  0.77287695  0.58807749  0.59036493  1.0
  F  F5419  1  0.77287695  0.67898658  0.59036493  1.0
  F  F5420  1  0.77287695  0.76989567  0.59036493  1.0
  F  F5421  1  0.77287695  0.86080476  0.59036493  1.0
  F  F5422  1  0.77287695  0.95171385  0.59036493  1.0
  F  F5423  1  0.86378604  0.04262294  0.59036493  1.0
  F  F5424  1  0.86378604  0.13353203  0.59036493  1.0
  F  F5425  1  0.86378604  0.22444112  0.59036493  1.0
  F  F5426  1  0.86378604  0.31535021  0.59036493  1.0
  F  F5427  1  0.86378604  0.40625930  0.59036493  1.0
  F  F5428  1  0.86378604  0.49716840  0.59036493  1.0
  F  F5429  1  0.86378604  0.58807749  0.59036493  1.0
  F  F5430  1  0.86378604  0.67898658  0.59036493  1.0
  F  F5431  1  0.86378604  0.76989567  0.59036493  1.0
  F  F5432  1  0.86378604  0.86080476  0.59036493  1.0
  F  F5433  1  0.86378604  0.95171385  0.59036493  1.0
  F  F5434  1  0.95469513  0.04262294  0.59036493  1.0
  F  F5435  1  0.95469513  0.13353203  0.59036493  1.0
  F  F5436  1  0.95469513  0.22444112  0.59036493  1.0
  F  F5437  1  0.95469513  0.31535021  0.59036493  1.0
  F  F5438  1  0.95469513  0.40625930  0.59036493  1.0
  F  F5439  1  0.95469513  0.49716840  0.59036493  1.0
  F  F5440  1  0.95469513  0.58807749  0.59036493  1.0
  F  F5441  1  0.95469513  0.67898658  0.59036493  1.0
  F  F5442  1  0.95469513  0.76989567  0.59036493  1.0
  F  F5443  1  0.95469513  0.86080476  0.59036493  1.0
  F  F5444  1  0.95469513  0.95171385  0.59036493  1.0
  F  F5445  1  0.00014968  0.08807749  0.51893635  1.0
  F  F5446  1  0.00014968  0.17898658  0.51893635  1.0
  F  F5447  1  0.00014968  0.26989567  0.51893635  1.0
  F  F5448  1  0.00014968  0.36080476  0.51893635  1.0
  F  F5449  1  0.00014968  0.45171385  0.51893635  1.0
  F  F5450  1  0.00014968  0.54262294  0.51893635  1.0
  F  F5451  1  0.00014968  0.63353203  0.51893635  1.0
  F  F5452  1  0.00014968  0.72444112  0.51893635  1.0
  F  F5453  1  0.00014968  0.81535021  0.51893635  1.0
  F  F5454  1  0.00014968  0.90625930  0.51893635  1.0
  F  F5455  1  0.00014968  0.99716840  0.51893635  1.0
  F  F5456  1  0.09105877  0.08807749  0.51893635  1.0
  F  F5457  1  0.09105877  0.17898658  0.51893635  1.0
  F  F5458  1  0.09105877  0.26989567  0.51893635  1.0
  F  F5459  1  0.09105877  0.36080476  0.51893635  1.0
  F  F5460  1  0.09105877  0.45171385  0.51893635  1.0
  F  F5461  1  0.09105877  0.54262294  0.51893635  1.0
  F  F5462  1  0.09105877  0.63353203  0.51893635  1.0
  F  F5463  1  0.09105877  0.72444112  0.51893635  1.0
  F  F5464  1  0.09105877  0.81535021  0.51893635  1.0
  F  F5465  1  0.09105877  0.90625930  0.51893635  1.0
  F  F5466  1  0.09105877  0.99716840  0.51893635  1.0
  F  F5467  1  0.18196786  0.08807749  0.51893635  1.0
  F  F5468  1  0.18196786  0.17898658  0.51893635  1.0
  F  F5469  1  0.18196786  0.26989567  0.51893635  1.0
  F  F5470  1  0.18196786  0.36080476  0.51893635  1.0
  F  F5471  1  0.18196786  0.45171385  0.51893635  1.0
  F  F5472  1  0.18196786  0.54262294  0.51893635  1.0
  F  F5473  1  0.18196786  0.63353203  0.51893635  1.0
  F  F5474  1  0.18196786  0.72444112  0.51893635  1.0
  F  F5475  1  0.18196786  0.81535021  0.51893635  1.0
  F  F5476  1  0.18196786  0.90625930  0.51893635  1.0
  F  F5477  1  0.18196786  0.99716840  0.51893635  1.0
  F  F5478  1  0.27287695  0.08807749  0.51893635  1.0
  F  F5479  1  0.27287695  0.17898658  0.51893635  1.0
  F  F5480  1  0.27287695  0.26989567  0.51893635  1.0
  F  F5481  1  0.27287695  0.36080476  0.51893635  1.0
  F  F5482  1  0.27287695  0.45171385  0.51893635  1.0
  F  F5483  1  0.27287695  0.54262294  0.51893635  1.0
  F  F5484  1  0.27287695  0.63353203  0.51893635  1.0
  F  F5485  1  0.27287695  0.72444112  0.51893635  1.0
  F  F5486  1  0.27287695  0.81535021  0.51893635  1.0
  F  F5487  1  0.27287695  0.90625930  0.51893635  1.0
  F  F5488  1  0.27287695  0.99716840  0.51893635  1.0
  F  F5489  1  0.36378604  0.08807749  0.51893635  1.0
  F  F5490  1  0.36378604  0.17898658  0.51893635  1.0
  F  F5491  1  0.36378604  0.26989567  0.51893635  1.0
  F  F5492  1  0.36378604  0.36080476  0.51893635  1.0
  F  F5493  1  0.36378604  0.45171385  0.51893635  1.0
  F  F5494  1  0.36378604  0.54262294  0.51893635  1.0
  F  F5495  1  0.36378604  0.63353203  0.51893635  1.0
  F  F5496  1  0.36378604  0.72444112  0.51893635  1.0
  F  F5497  1  0.36378604  0.81535021  0.51893635  1.0
  F  F5498  1  0.36378604  0.90625930  0.51893635  1.0
  F  F5499  1  0.36378604  0.99716840  0.51893635  1.0
  F  F5500  1  0.45469513  0.08807749  0.51893635  1.0
  F  F5501  1  0.45469513  0.17898658  0.51893635  1.0
  F  F5502  1  0.45469513  0.26989567  0.51893635  1.0
  F  F5503  1  0.45469513  0.36080476  0.51893635  1.0
  F  F5504  1  0.45469513  0.45171385  0.51893635  1.0
  F  F5505  1  0.45469513  0.54262294  0.51893635  1.0
  F  F5506  1  0.45469513  0.63353203  0.51893635  1.0
  F  F5507  1  0.45469513  0.72444112  0.51893635  1.0
  F  F5508  1  0.45469513  0.81535021  0.51893635  1.0
  F  F5509  1  0.45469513  0.90625930  0.51893635  1.0
  F  F5510  1  0.45469513  0.99716840  0.51893635  1.0
  F  F5511  1  0.54560422  0.08807749  0.51893635  1.0
  F  F5512  1  0.54560422  0.17898658  0.51893635  1.0
  F  F5513  1  0.54560422  0.26989567  0.51893635  1.0
  F  F5514  1  0.54560422  0.36080476  0.51893635  1.0
  F  F5515  1  0.54560422  0.45171385  0.51893635  1.0
  F  F5516  1  0.54560422  0.54262294  0.51893635  1.0
  F  F5517  1  0.54560422  0.63353203  0.51893635  1.0
  F  F5518  1  0.54560422  0.72444112  0.51893635  1.0
  F  F5519  1  0.54560422  0.81535021  0.51893635  1.0
  F  F5520  1  0.54560422  0.90625930  0.51893635  1.0
  F  F5521  1  0.54560422  0.99716840  0.51893635  1.0
  F  F5522  1  0.63651331  0.08807749  0.51893635  1.0
  F  F5523  1  0.63651331  0.17898658  0.51893635  1.0
  F  F5524  1  0.63651331  0.26989567  0.51893635  1.0
  F  F5525  1  0.63651331  0.36080476  0.51893635  1.0
  F  F5526  1  0.63651331  0.45171385  0.51893635  1.0
  F  F5527  1  0.63651331  0.54262294  0.51893635  1.0
  F  F5528  1  0.63651331  0.63353203  0.51893635  1.0
  F  F5529  1  0.63651331  0.72444112  0.51893635  1.0
  F  F5530  1  0.63651331  0.81535021  0.51893635  1.0
  F  F5531  1  0.63651331  0.90625930  0.51893635  1.0
  F  F5532  1  0.63651331  0.99716840  0.51893635  1.0
  F  F5533  1  0.72742240  0.08807749  0.51893635  1.0
  F  F5534  1  0.72742240  0.17898658  0.51893635  1.0
  F  F5535  1  0.72742240  0.26989567  0.51893635  1.0
  F  F5536  1  0.72742240  0.36080476  0.51893635  1.0
  F  F5537  1  0.72742240  0.45171385  0.51893635  1.0
  F  F5538  1  0.72742240  0.54262294  0.51893635  1.0
  F  F5539  1  0.72742240  0.63353203  0.51893635  1.0
  F  F5540  1  0.72742240  0.72444112  0.51893635  1.0
  F  F5541  1  0.72742240  0.81535021  0.51893635  1.0
  F  F5542  1  0.72742240  0.90625930  0.51893635  1.0
  F  F5543  1  0.72742240  0.99716840  0.51893635  1.0
  F  F5544  1  0.81833150  0.08807749  0.51893635  1.0
  F  F5545  1  0.81833150  0.17898658  0.51893635  1.0
  F  F5546  1  0.81833150  0.26989567  0.51893635  1.0
  F  F5547  1  0.81833150  0.36080476  0.51893635  1.0
  F  F5548  1  0.81833150  0.45171385  0.51893635  1.0
  F  F5549  1  0.81833150  0.54262294  0.51893635  1.0
  F  F5550  1  0.81833150  0.63353203  0.51893635  1.0
  F  F5551  1  0.81833150  0.72444112  0.51893635  1.0
  F  F5552  1  0.81833150  0.81535021  0.51893635  1.0
  F  F5553  1  0.81833150  0.90625930  0.51893635  1.0
  F  F5554  1  0.81833150  0.99716840  0.51893635  1.0
  F  F5555  1  0.90924059  0.08807749  0.51893635  1.0
  F  F5556  1  0.90924059  0.17898658  0.51893635  1.0
  F  F5557  1  0.90924059  0.26989567  0.51893635  1.0
  F  F5558  1  0.90924059  0.36080476  0.51893635  1.0
  F  F5559  1  0.90924059  0.45171385  0.51893635  1.0
  F  F5560  1  0.90924059  0.54262294  0.51893635  1.0
  F  F5561  1  0.90924059  0.63353203  0.51893635  1.0
  F  F5562  1  0.90924059  0.72444112  0.51893635  1.0
  F  F5563  1  0.90924059  0.81535021  0.51893635  1.0
  F  F5564  1  0.90924059  0.90625930  0.51893635  1.0
  F  F5565  1  0.90924059  0.99716840  0.51893635  1.0
  F  F5566  1  0.02388784  0.06966900  0.76743919  1.0
  F  F5567  1  0.02388784  0.16057809  0.76743919  1.0
  F  F5568  1  0.02388784  0.25148719  0.76743919  1.0
  F  F5569  1  0.02388784  0.34239628  0.76743919  1.0
  F  F5570  1  0.02388784  0.43330537  0.76743919  1.0
  F  F5571  1  0.02388784  0.52421446  0.76743919  1.0
  F  F5572  1  0.02388784  0.61512355  0.76743919  1.0
  F  F5573  1  0.02388784  0.70603264  0.76743919  1.0
  F  F5574  1  0.02388784  0.79694173  0.76743919  1.0
  F  F5575  1  0.02388784  0.88785082  0.76743919  1.0
  F  F5576  1  0.02388784  0.97875991  0.76743919  1.0
  F  F5577  1  0.11479693  0.06966900  0.76743919  1.0
  F  F5578  1  0.11479693  0.16057809  0.76743919  1.0
  F  F5579  1  0.11479693  0.25148719  0.76743919  1.0
  F  F5580  1  0.11479693  0.34239628  0.76743919  1.0
  F  F5581  1  0.11479693  0.43330537  0.76743919  1.0
  F  F5582  1  0.11479693  0.52421446  0.76743919  1.0
  F  F5583  1  0.11479693  0.61512355  0.76743919  1.0
  F  F5584  1  0.11479693  0.70603264  0.76743919  1.0
  F  F5585  1  0.11479693  0.79694173  0.76743919  1.0
  F  F5586  1  0.11479693  0.88785082  0.76743919  1.0
  F  F5587  1  0.11479693  0.97875991  0.76743919  1.0
  F  F5588  1  0.20570602  0.06966900  0.76743919  1.0
  F  F5589  1  0.20570602  0.16057809  0.76743919  1.0
  F  F5590  1  0.20570602  0.25148719  0.76743919  1.0
  F  F5591  1  0.20570602  0.34239628  0.76743919  1.0
  F  F5592  1  0.20570602  0.43330537  0.76743919  1.0
  F  F5593  1  0.20570602  0.52421446  0.76743919  1.0
  F  F5594  1  0.20570602  0.61512355  0.76743919  1.0
  F  F5595  1  0.20570602  0.70603264  0.76743919  1.0
  F  F5596  1  0.20570602  0.79694173  0.76743919  1.0
  F  F5597  1  0.20570602  0.88785082  0.76743919  1.0
  F  F5598  1  0.20570602  0.97875991  0.76743919  1.0
  F  F5599  1  0.29661511  0.06966900  0.76743919  1.0
  F  F5600  1  0.29661511  0.16057809  0.76743919  1.0
  F  F5601  1  0.29661511  0.25148719  0.76743919  1.0
  F  F5602  1  0.29661511  0.34239628  0.76743919  1.0
  F  F5603  1  0.29661511  0.43330537  0.76743919  1.0
  F  F5604  1  0.29661511  0.52421446  0.76743919  1.0
  F  F5605  1  0.29661511  0.61512355  0.76743919  1.0
  F  F5606  1  0.29661511  0.70603264  0.76743919  1.0
  F  F5607  1  0.29661511  0.79694173  0.76743919  1.0
  F  F5608  1  0.29661511  0.88785082  0.76743919  1.0
  F  F5609  1  0.29661511  0.97875991  0.76743919  1.0
  F  F5610  1  0.38752420  0.06966900  0.76743919  1.0
  F  F5611  1  0.38752420  0.16057809  0.76743919  1.0
  F  F5612  1  0.38752420  0.25148719  0.76743919  1.0
  F  F5613  1  0.38752420  0.34239628  0.76743919  1.0
  F  F5614  1  0.38752420  0.43330537  0.76743919  1.0
  F  F5615  1  0.38752420  0.52421446  0.76743919  1.0
  F  F5616  1  0.38752420  0.61512355  0.76743919  1.0
  F  F5617  1  0.38752420  0.70603264  0.76743919  1.0
  F  F5618  1  0.38752420  0.79694173  0.76743919  1.0
  F  F5619  1  0.38752420  0.88785082  0.76743919  1.0
  F  F5620  1  0.38752420  0.97875991  0.76743919  1.0
  F  F5621  1  0.47843329  0.06966900  0.76743919  1.0
  F  F5622  1  0.47843329  0.16057809  0.76743919  1.0
  F  F5623  1  0.47843329  0.25148719  0.76743919  1.0
  F  F5624  1  0.47843329  0.34239628  0.76743919  1.0
  F  F5625  1  0.47843329  0.43330537  0.76743919  1.0
  F  F5626  1  0.47843329  0.52421446  0.76743919  1.0
  F  F5627  1  0.47843329  0.61512355  0.76743919  1.0
  F  F5628  1  0.47843329  0.70603264  0.76743919  1.0
  F  F5629  1  0.47843329  0.79694173  0.76743919  1.0
  F  F5630  1  0.47843329  0.88785082  0.76743919  1.0
  F  F5631  1  0.47843329  0.97875991  0.76743919  1.0
  F  F5632  1  0.56934238  0.06966900  0.76743919  1.0
  F  F5633  1  0.56934238  0.16057809  0.76743919  1.0
  F  F5634  1  0.56934238  0.25148719  0.76743919  1.0
  F  F5635  1  0.56934238  0.34239628  0.76743919  1.0
  F  F5636  1  0.56934238  0.43330537  0.76743919  1.0
  F  F5637  1  0.56934238  0.52421446  0.76743919  1.0
  F  F5638  1  0.56934238  0.61512355  0.76743919  1.0
  F  F5639  1  0.56934238  0.70603264  0.76743919  1.0
  F  F5640  1  0.56934238  0.79694173  0.76743919  1.0
  F  F5641  1  0.56934238  0.88785082  0.76743919  1.0
  F  F5642  1  0.56934238  0.97875991  0.76743919  1.0
  F  F5643  1  0.66025148  0.06966900  0.76743919  1.0
  F  F5644  1  0.66025147  0.16057809  0.76743919  1.0
  F  F5645  1  0.66025147  0.25148719  0.76743919  1.0
  F  F5646  1  0.66025148  0.34239628  0.76743919  1.0
  F  F5647  1  0.66025148  0.43330537  0.76743919  1.0
  F  F5648  1  0.66025148  0.52421446  0.76743919  1.0
  F  F5649  1  0.66025147  0.61512355  0.76743919  1.0
  F  F5650  1  0.66025148  0.70603264  0.76743919  1.0
  F  F5651  1  0.66025147  0.79694173  0.76743919  1.0
  F  F5652  1  0.66025148  0.88785082  0.76743919  1.0
  F  F5653  1  0.66025148  0.97875991  0.76743919  1.0
  F  F5654  1  0.75116057  0.06966900  0.76743919  1.0
  F  F5655  1  0.75116057  0.16057809  0.76743919  1.0
  F  F5656  1  0.75116057  0.25148719  0.76743919  1.0
  F  F5657  1  0.75116057  0.34239628  0.76743919  1.0
  F  F5658  1  0.75116057  0.43330537  0.76743919  1.0
  F  F5659  1  0.75116057  0.52421446  0.76743919  1.0
  F  F5660  1  0.75116057  0.61512355  0.76743919  1.0
  F  F5661  1  0.75116057  0.70603264  0.76743919  1.0
  F  F5662  1  0.75116057  0.79694173  0.76743919  1.0
  F  F5663  1  0.75116057  0.88785082  0.76743919  1.0
  F  F5664  1  0.75116057  0.97875991  0.76743919  1.0
  F  F5665  1  0.84206966  0.06966900  0.76743919  1.0
  F  F5666  1  0.84206966  0.16057809  0.76743919  1.0
  F  F5667  1  0.84206966  0.25148719  0.76743919  1.0
  F  F5668  1  0.84206966  0.34239628  0.76743919  1.0
  F  F5669  1  0.84206966  0.43330537  0.76743919  1.0
  F  F5670  1  0.84206966  0.52421446  0.76743919  1.0
  F  F5671  1  0.84206966  0.61512355  0.76743919  1.0
  F  F5672  1  0.84206966  0.70603264  0.76743919  1.0
  F  F5673  1  0.84206966  0.79694173  0.76743919  1.0
  F  F5674  1  0.84206966  0.88785082  0.76743919  1.0
  F  F5675  1  0.84206966  0.97875991  0.76743919  1.0
  F  F5676  1  0.93297875  0.06966900  0.76743919  1.0
  F  F5677  1  0.93297875  0.16057809  0.76743919  1.0
  F  F5678  1  0.93297875  0.25148719  0.76743919  1.0
  F  F5679  1  0.93297875  0.34239628  0.76743919  1.0
  F  F5680  1  0.93297875  0.43330537  0.76743919  1.0
  F  F5681  1  0.93297875  0.52421446  0.76743919  1.0
  F  F5682  1  0.93297875  0.61512355  0.76743919  1.0
  F  F5683  1  0.93297875  0.70603264  0.76743919  1.0
  F  F5684  1  0.93297875  0.79694173  0.76743919  1.0
  F  F5685  1  0.93297875  0.88785082  0.76743919  1.0
  F  F5686  1  0.93297875  0.97875991  0.76743919  1.0
  F  F5687  1  0.06934238  0.02421446  0.69601061  1.0
  F  F5688  1  0.06934238  0.11512355  0.69601061  1.0
  F  F5689  1  0.06934238  0.20603264  0.69601061  1.0
  F  F5690  1  0.06934238  0.29694173  0.69601061  1.0
  F  F5691  1  0.06934238  0.38785082  0.69601061  1.0
  F  F5692  1  0.06934238  0.47875991  0.69601061  1.0
  F  F5693  1  0.06934238  0.56966900  0.69601061  1.0
  F  F5694  1  0.06934238  0.66057809  0.69601061  1.0
  F  F5695  1  0.06934238  0.75148719  0.69601061  1.0
  F  F5696  1  0.06934238  0.84239628  0.69601061  1.0
  F  F5697  1  0.06934238  0.93330537  0.69601061  1.0
  F  F5698  1  0.16025148  0.02421446  0.69601061  1.0
  F  F5699  1  0.16025148  0.11512355  0.69601061  1.0
  F  F5700  1  0.16025148  0.20603264  0.69601061  1.0
  F  F5701  1  0.16025148  0.29694173  0.69601061  1.0
  F  F5702  1  0.16025148  0.38785082  0.69601061  1.0
  F  F5703  1  0.16025148  0.47875991  0.69601061  1.0
  F  F5704  1  0.16025148  0.56966900  0.69601061  1.0
  F  F5705  1  0.16025148  0.66057809  0.69601061  1.0
  F  F5706  1  0.16025148  0.75148719  0.69601061  1.0
  F  F5707  1  0.16025148  0.84239628  0.69601061  1.0
  F  F5708  1  0.16025148  0.93330537  0.69601061  1.0
  F  F5709  1  0.25116057  0.02421446  0.69601061  1.0
  F  F5710  1  0.25116057  0.11512355  0.69601061  1.0
  F  F5711  1  0.25116057  0.20603264  0.69601061  1.0
  F  F5712  1  0.25116057  0.29694173  0.69601061  1.0
  F  F5713  1  0.25116057  0.38785082  0.69601061  1.0
  F  F5714  1  0.25116057  0.47875991  0.69601061  1.0
  F  F5715  1  0.25116057  0.56966900  0.69601061  1.0
  F  F5716  1  0.25116057  0.66057809  0.69601061  1.0
  F  F5717  1  0.25116057  0.75148719  0.69601061  1.0
  F  F5718  1  0.25116057  0.84239628  0.69601061  1.0
  F  F5719  1  0.25116057  0.93330537  0.69601061  1.0
  F  F5720  1  0.34206966  0.02421446  0.69601061  1.0
  F  F5721  1  0.34206966  0.11512355  0.69601061  1.0
  F  F5722  1  0.34206966  0.20603264  0.69601061  1.0
  F  F5723  1  0.34206966  0.29694173  0.69601061  1.0
  F  F5724  1  0.34206966  0.38785082  0.69601061  1.0
  F  F5725  1  0.34206966  0.47875991  0.69601061  1.0
  F  F5726  1  0.34206966  0.56966900  0.69601061  1.0
  F  F5727  1  0.34206966  0.66057809  0.69601061  1.0
  F  F5728  1  0.34206966  0.75148719  0.69601061  1.0
  F  F5729  1  0.34206966  0.84239628  0.69601061  1.0
  F  F5730  1  0.34206966  0.93330537  0.69601061  1.0
  F  F5731  1  0.43297875  0.02421446  0.69601061  1.0
  F  F5732  1  0.43297875  0.11512355  0.69601061  1.0
  F  F5733  1  0.43297875  0.20603264  0.69601061  1.0
  F  F5734  1  0.43297875  0.29694173  0.69601061  1.0
  F  F5735  1  0.43297875  0.38785082  0.69601061  1.0
  F  F5736  1  0.43297875  0.47875991  0.69601061  1.0
  F  F5737  1  0.43297875  0.56966900  0.69601061  1.0
  F  F5738  1  0.43297875  0.66057809  0.69601061  1.0
  F  F5739  1  0.43297875  0.75148719  0.69601061  1.0
  F  F5740  1  0.43297875  0.84239628  0.69601061  1.0
  F  F5741  1  0.43297875  0.93330537  0.69601061  1.0
  F  F5742  1  0.52388784  0.02421446  0.69601061  1.0
  F  F5743  1  0.52388784  0.11512355  0.69601061  1.0
  F  F5744  1  0.52388784  0.20603264  0.69601061  1.0
  F  F5745  1  0.52388784  0.29694173  0.69601061  1.0
  F  F5746  1  0.52388784  0.38785082  0.69601061  1.0
  F  F5747  1  0.52388784  0.47875991  0.69601061  1.0
  F  F5748  1  0.52388784  0.56966900  0.69601061  1.0
  F  F5749  1  0.52388784  0.66057809  0.69601061  1.0
  F  F5750  1  0.52388784  0.75148719  0.69601061  1.0
  F  F5751  1  0.52388784  0.84239628  0.69601061  1.0
  F  F5752  1  0.52388784  0.93330537  0.69601061  1.0
  F  F5753  1  0.61479693  0.02421446  0.69601061  1.0
  F  F5754  1  0.61479693  0.11512355  0.69601061  1.0
  F  F5755  1  0.61479693  0.20603264  0.69601061  1.0
  F  F5756  1  0.61479693  0.29694173  0.69601061  1.0
  F  F5757  1  0.61479693  0.38785082  0.69601061  1.0
  F  F5758  1  0.61479693  0.47875991  0.69601061  1.0
  F  F5759  1  0.61479693  0.56966900  0.69601061  1.0
  F  F5760  1  0.61479693  0.66057809  0.69601061  1.0
  F  F5761  1  0.61479693  0.75148719  0.69601061  1.0
  F  F5762  1  0.61479693  0.84239628  0.69601061  1.0
  F  F5763  1  0.61479693  0.93330537  0.69601061  1.0
  F  F5764  1  0.70570602  0.02421446  0.69601061  1.0
  F  F5765  1  0.70570602  0.11512355  0.69601061  1.0
  F  F5766  1  0.70570602  0.20603264  0.69601061  1.0
  F  F5767  1  0.70570602  0.29694173  0.69601061  1.0
  F  F5768  1  0.70570602  0.38785082  0.69601061  1.0
  F  F5769  1  0.70570602  0.47875991  0.69601061  1.0
  F  F5770  1  0.70570602  0.56966900  0.69601061  1.0
  F  F5771  1  0.70570602  0.66057809  0.69601061  1.0
  F  F5772  1  0.70570602  0.75148719  0.69601061  1.0
  F  F5773  1  0.70570602  0.84239628  0.69601061  1.0
  F  F5774  1  0.70570602  0.93330537  0.69601061  1.0
  F  F5775  1  0.79661511  0.02421446  0.69601061  1.0
  F  F5776  1  0.79661511  0.11512355  0.69601061  1.0
  F  F5777  1  0.79661511  0.20603264  0.69601061  1.0
  F  F5778  1  0.79661511  0.29694173  0.69601061  1.0
  F  F5779  1  0.79661511  0.38785082  0.69601061  1.0
  F  F5780  1  0.79661511  0.47875991  0.69601061  1.0
  F  F5781  1  0.79661511  0.56966900  0.69601061  1.0
  F  F5782  1  0.79661511  0.66057809  0.69601061  1.0
  F  F5783  1  0.79661511  0.75148719  0.69601061  1.0
  F  F5784  1  0.79661511  0.84239628  0.69601061  1.0
  F  F5785  1  0.79661511  0.93330537  0.69601061  1.0
  F  F5786  1  0.88752420  0.02421446  0.69601061  1.0
  F  F5787  1  0.88752420  0.11512355  0.69601061  1.0
  F  F5788  1  0.88752420  0.20603264  0.69601061  1.0
  F  F5789  1  0.88752420  0.29694173  0.69601061  1.0
  F  F5790  1  0.88752420  0.38785082  0.69601061  1.0
  F  F5791  1  0.88752420  0.47875991  0.69601061  1.0
  F  F5792  1  0.88752420  0.56966900  0.69601061  1.0
  F  F5793  1  0.88752420  0.66057809  0.69601061  1.0
  F  F5794  1  0.88752420  0.75148719  0.69601061  1.0
  F  F5795  1  0.88752420  0.84239628  0.69601061  1.0
  F  F5796  1  0.88752420  0.93330537  0.69601061  1.0
  F  F5797  1  0.97843329  0.02421446  0.69601061  1.0
  F  F5798  1  0.97843329  0.11512355  0.69601061  1.0
  F  F5799  1  0.97843329  0.20603264  0.69601061  1.0
  F  F5800  1  0.97843329  0.29694173  0.69601061  1.0
  F  F5801  1  0.97843329  0.38785082  0.69601061  1.0
  F  F5802  1  0.97843329  0.47875991  0.69601061  1.0
  F  F5803  1  0.97843329  0.56966900  0.69601061  1.0
  F  F5804  1  0.97843329  0.66057809  0.69601061  1.0
  F  F5805  1  0.97843329  0.75148719  0.69601061  1.0
  F  F5806  1  0.97843329  0.84239628  0.69601061  1.0
  F  F5807  1  0.97843329  0.93330537  0.69601061  1.0
  F  F5808  1  0.06914445  0.06639475  0.76728397  1.0
  F  F5809  1  0.06914445  0.15730384  0.76728397  1.0
  F  F5810  1  0.06914445  0.24821293  0.76728397  1.0
  F  F5811  1  0.06914445  0.33912202  0.76728397  1.0
  F  F5812  1  0.06914445  0.43003112  0.76728397  1.0
  F  F5813  1  0.06914445  0.52094021  0.76728397  1.0
  F  F5814  1  0.06914445  0.61184930  0.76728397  1.0
  F  F5815  1  0.06914445  0.70275839  0.76728397  1.0
  F  F5816  1  0.06914445  0.79366748  0.76728397  1.0
  F  F5817  1  0.06914445  0.88457657  0.76728397  1.0
  F  F5818  1  0.06914445  0.97548566  0.76728397  1.0
  F  F5819  1  0.16005354  0.06639475  0.76728397  1.0
  F  F5820  1  0.16005354  0.15730384  0.76728397  1.0
  F  F5821  1  0.16005354  0.24821293  0.76728397  1.0
  F  F5822  1  0.16005354  0.33912202  0.76728397  1.0
  F  F5823  1  0.16005354  0.43003112  0.76728397  1.0
  F  F5824  1  0.16005354  0.52094021  0.76728397  1.0
  F  F5825  1  0.16005354  0.61184930  0.76728397  1.0
  F  F5826  1  0.16005354  0.70275839  0.76728397  1.0
  F  F5827  1  0.16005354  0.79366748  0.76728397  1.0
  F  F5828  1  0.16005354  0.88457657  0.76728397  1.0
  F  F5829  1  0.16005354  0.97548566  0.76728397  1.0
  F  F5830  1  0.25096263  0.06639475  0.76728397  1.0
  F  F5831  1  0.25096263  0.15730384  0.76728397  1.0
  F  F5832  1  0.25096263  0.24821293  0.76728397  1.0
  F  F5833  1  0.25096263  0.33912202  0.76728397  1.0
  F  F5834  1  0.25096263  0.43003112  0.76728397  1.0
  F  F5835  1  0.25096263  0.52094021  0.76728397  1.0
  F  F5836  1  0.25096263  0.61184930  0.76728397  1.0
  F  F5837  1  0.25096263  0.70275839  0.76728397  1.0
  F  F5838  1  0.25096263  0.79366748  0.76728397  1.0
  F  F5839  1  0.25096263  0.88457657  0.76728397  1.0
  F  F5840  1  0.25096263  0.97548566  0.76728397  1.0
  F  F5841  1  0.34187172  0.06639475  0.76728397  1.0
  F  F5842  1  0.34187172  0.15730384  0.76728397  1.0
  F  F5843  1  0.34187172  0.24821293  0.76728397  1.0
  F  F5844  1  0.34187172  0.33912202  0.76728397  1.0
  F  F5845  1  0.34187172  0.43003112  0.76728397  1.0
  F  F5846  1  0.34187172  0.52094021  0.76728397  1.0
  F  F5847  1  0.34187172  0.61184930  0.76728397  1.0
  F  F5848  1  0.34187172  0.70275839  0.76728397  1.0
  F  F5849  1  0.34187172  0.79366748  0.76728397  1.0
  F  F5850  1  0.34187172  0.88457657  0.76728397  1.0
  F  F5851  1  0.34187172  0.97548566  0.76728397  1.0
  F  F5852  1  0.43278081  0.06639475  0.76728397  1.0
  F  F5853  1  0.43278081  0.15730384  0.76728397  1.0
  F  F5854  1  0.43278081  0.24821293  0.76728397  1.0
  F  F5855  1  0.43278081  0.33912202  0.76728397  1.0
  F  F5856  1  0.43278081  0.43003112  0.76728397  1.0
  F  F5857  1  0.43278081  0.52094021  0.76728397  1.0
  F  F5858  1  0.43278081  0.61184930  0.76728397  1.0
  F  F5859  1  0.43278081  0.70275839  0.76728397  1.0
  F  F5860  1  0.43278081  0.79366748  0.76728397  1.0
  F  F5861  1  0.43278081  0.88457657  0.76728397  1.0
  F  F5862  1  0.43278081  0.97548566  0.76728397  1.0
  F  F5863  1  0.52368990  0.06639475  0.76728397  1.0
  F  F5864  1  0.52368990  0.15730384  0.76728397  1.0
  F  F5865  1  0.52368990  0.24821293  0.76728397  1.0
  F  F5866  1  0.52368990  0.33912202  0.76728397  1.0
  F  F5867  1  0.52368990  0.43003112  0.76728397  1.0
  F  F5868  1  0.52368990  0.52094021  0.76728397  1.0
  F  F5869  1  0.52368990  0.61184930  0.76728397  1.0
  F  F5870  1  0.52368990  0.70275839  0.76728397  1.0
  F  F5871  1  0.52368990  0.79366748  0.76728397  1.0
  F  F5872  1  0.52368990  0.88457657  0.76728397  1.0
  F  F5873  1  0.52368990  0.97548566  0.76728397  1.0
  F  F5874  1  0.61459899  0.06639475  0.76728397  1.0
  F  F5875  1  0.61459899  0.15730384  0.76728397  1.0
  F  F5876  1  0.61459899  0.24821293  0.76728397  1.0
  F  F5877  1  0.61459899  0.33912202  0.76728397  1.0
  F  F5878  1  0.61459899  0.43003112  0.76728397  1.0
  F  F5879  1  0.61459899  0.52094021  0.76728397  1.0
  F  F5880  1  0.61459899  0.61184930  0.76728397  1.0
  F  F5881  1  0.61459899  0.70275839  0.76728397  1.0
  F  F5882  1  0.61459899  0.79366748  0.76728397  1.0
  F  F5883  1  0.61459899  0.88457657  0.76728397  1.0
  F  F5884  1  0.61459899  0.97548566  0.76728397  1.0
  F  F5885  1  0.70550809  0.06639475  0.76728397  1.0
  F  F5886  1  0.70550809  0.15730384  0.76728397  1.0
  F  F5887  1  0.70550808  0.24821293  0.76728397  1.0
  F  F5888  1  0.70550809  0.33912202  0.76728397  1.0
  F  F5889  1  0.70550809  0.43003112  0.76728397  1.0
  F  F5890  1  0.70550809  0.52094021  0.76728397  1.0
  F  F5891  1  0.70550809  0.61184930  0.76728397  1.0
  F  F5892  1  0.70550809  0.70275839  0.76728397  1.0
  F  F5893  1  0.70550809  0.79366748  0.76728397  1.0
  F  F5894  1  0.70550809  0.88457657  0.76728397  1.0
  F  F5895  1  0.70550809  0.97548566  0.76728397  1.0
  F  F5896  1  0.79641718  0.06639475  0.76728397  1.0
  F  F5897  1  0.79641718  0.15730384  0.76728397  1.0
  F  F5898  1  0.79641718  0.24821293  0.76728397  1.0
  F  F5899  1  0.79641718  0.33912202  0.76728397  1.0
  F  F5900  1  0.79641718  0.43003112  0.76728397  1.0
  F  F5901  1  0.79641718  0.52094021  0.76728397  1.0
  F  F5902  1  0.79641718  0.61184930  0.76728397  1.0
  F  F5903  1  0.79641718  0.70275839  0.76728397  1.0
  F  F5904  1  0.79641718  0.79366748  0.76728397  1.0
  F  F5905  1  0.79641718  0.88457657  0.76728397  1.0
  F  F5906  1  0.79641718  0.97548566  0.76728397  1.0
  F  F5907  1  0.88732627  0.06639475  0.76728397  1.0
  F  F5908  1  0.88732627  0.15730384  0.76728397  1.0
  F  F5909  1  0.88732627  0.24821293  0.76728397  1.0
  F  F5910  1  0.88732627  0.33912202  0.76728397  1.0
  F  F5911  1  0.88732627  0.43003112  0.76728397  1.0
  F  F5912  1  0.88732627  0.52094021  0.76728397  1.0
  F  F5913  1  0.88732627  0.61184930  0.76728397  1.0
  F  F5914  1  0.88732627  0.70275839  0.76728397  1.0
  F  F5915  1  0.88732627  0.79366748  0.76728397  1.0
  F  F5916  1  0.88732627  0.88457657  0.76728397  1.0
  F  F5917  1  0.88732627  0.97548566  0.76728397  1.0
  F  F5918  1  0.97823536  0.06639475  0.76728397  1.0
  F  F5919  1  0.97823536  0.15730384  0.76728397  1.0
  F  F5920  1  0.97823536  0.24821293  0.76728397  1.0
  F  F5921  1  0.97823536  0.33912202  0.76728397  1.0
  F  F5922  1  0.97823536  0.43003112  0.76728397  1.0
  F  F5923  1  0.97823536  0.52094021  0.76728397  1.0
  F  F5924  1  0.97823536  0.61184930  0.76728397  1.0
  F  F5925  1  0.97823536  0.70275839  0.76728397  1.0
  F  F5926  1  0.97823536  0.79366748  0.76728397  1.0
  F  F5927  1  0.97823536  0.88457657  0.76728397  1.0
  F  F5928  1  0.97823536  0.97548566  0.76728397  1.0
  F  F5929  1  0.02368990  0.02094021  0.69585540  1.0
  F  F5930  1  0.02368990  0.11184930  0.69585540  1.0
  F  F5931  1  0.02368990  0.20275839  0.69585540  1.0
  F  F5932  1  0.02368990  0.29366748  0.69585540  1.0
  F  F5933  1  0.02368990  0.38457657  0.69585540  1.0
  F  F5934  1  0.02368990  0.47548566  0.69585540  1.0
  F  F5935  1  0.02368990  0.56639475  0.69585540  1.0
  F  F5936  1  0.02368990  0.65730384  0.69585540  1.0
  F  F5937  1  0.02368990  0.74821293  0.69585540  1.0
  F  F5938  1  0.02368990  0.83912202  0.69585540  1.0
  F  F5939  1  0.02368990  0.93003112  0.69585540  1.0
  F  F5940  1  0.11459899  0.02094021  0.69585540  1.0
  F  F5941  1  0.11459899  0.11184930  0.69585540  1.0
  F  F5942  1  0.11459899  0.20275839  0.69585540  1.0
  F  F5943  1  0.11459899  0.29366748  0.69585540  1.0
  F  F5944  1  0.11459899  0.38457657  0.69585540  1.0
  F  F5945  1  0.11459899  0.47548566  0.69585540  1.0
  F  F5946  1  0.11459899  0.56639475  0.69585540  1.0
  F  F5947  1  0.11459899  0.65730384  0.69585540  1.0
  F  F5948  1  0.11459899  0.74821293  0.69585540  1.0
  F  F5949  1  0.11459899  0.83912202  0.69585540  1.0
  F  F5950  1  0.11459899  0.93003112  0.69585540  1.0
  F  F5951  1  0.20550809  0.02094021  0.69585540  1.0
  F  F5952  1  0.20550809  0.11184930  0.69585540  1.0
  F  F5953  1  0.20550809  0.20275839  0.69585540  1.0
  F  F5954  1  0.20550809  0.29366748  0.69585540  1.0
  F  F5955  1  0.20550809  0.38457657  0.69585540  1.0
  F  F5956  1  0.20550809  0.47548566  0.69585540  1.0
  F  F5957  1  0.20550809  0.56639475  0.69585540  1.0
  F  F5958  1  0.20550809  0.65730384  0.69585540  1.0
  F  F5959  1  0.20550809  0.74821293  0.69585540  1.0
  F  F5960  1  0.20550809  0.83912202  0.69585540  1.0
  F  F5961  1  0.20550809  0.93003112  0.69585540  1.0
  F  F5962  1  0.29641718  0.02094021  0.69585540  1.0
  F  F5963  1  0.29641718  0.11184930  0.69585540  1.0
  F  F5964  1  0.29641718  0.20275839  0.69585540  1.0
  F  F5965  1  0.29641718  0.29366748  0.69585540  1.0
  F  F5966  1  0.29641718  0.38457657  0.69585540  1.0
  F  F5967  1  0.29641718  0.47548566  0.69585540  1.0
  F  F5968  1  0.29641718  0.56639475  0.69585540  1.0
  F  F5969  1  0.29641718  0.65730384  0.69585540  1.0
  F  F5970  1  0.29641718  0.74821293  0.69585540  1.0
  F  F5971  1  0.29641718  0.83912202  0.69585540  1.0
  F  F5972  1  0.29641718  0.93003112  0.69585540  1.0
  F  F5973  1  0.38732627  0.02094021  0.69585540  1.0
  F  F5974  1  0.38732627  0.11184930  0.69585540  1.0
  F  F5975  1  0.38732627  0.20275839  0.69585540  1.0
  F  F5976  1  0.38732627  0.29366748  0.69585540  1.0
  F  F5977  1  0.38732627  0.38457657  0.69585540  1.0
  F  F5978  1  0.38732627  0.47548566  0.69585540  1.0
  F  F5979  1  0.38732627  0.56639475  0.69585540  1.0
  F  F5980  1  0.38732627  0.65730384  0.69585540  1.0
  F  F5981  1  0.38732627  0.74821293  0.69585540  1.0
  F  F5982  1  0.38732627  0.83912202  0.69585540  1.0
  F  F5983  1  0.38732627  0.93003112  0.69585540  1.0
  F  F5984  1  0.47823536  0.02094021  0.69585540  1.0
  F  F5985  1  0.47823536  0.11184930  0.69585540  1.0
  F  F5986  1  0.47823536  0.20275839  0.69585540  1.0
  F  F5987  1  0.47823536  0.29366748  0.69585540  1.0
  F  F5988  1  0.47823536  0.38457657  0.69585540  1.0
  F  F5989  1  0.47823536  0.47548566  0.69585540  1.0
  F  F5990  1  0.47823536  0.56639475  0.69585540  1.0
  F  F5991  1  0.47823536  0.65730384  0.69585540  1.0
  F  F5992  1  0.47823536  0.74821293  0.69585540  1.0
  F  F5993  1  0.47823536  0.83912202  0.69585540  1.0
  F  F5994  1  0.47823536  0.93003112  0.69585540  1.0
  F  F5995  1  0.56914445  0.02094021  0.69585540  1.0
  F  F5996  1  0.56914445  0.11184930  0.69585540  1.0
  F  F5997  1  0.56914445  0.20275839  0.69585540  1.0
  F  F5998  1  0.56914445  0.29366748  0.69585540  1.0
  F  F5999  1  0.56914445  0.38457657  0.69585540  1.0
  F  F6000  1  0.56914445  0.47548566  0.69585540  1.0
  F  F6001  1  0.56914445  0.56639475  0.69585540  1.0
  F  F6002  1  0.56914445  0.65730384  0.69585540  1.0
  F  F6003  1  0.56914445  0.74821293  0.69585540  1.0
  F  F6004  1  0.56914445  0.83912202  0.69585540  1.0
  F  F6005  1  0.56914445  0.93003112  0.69585540  1.0
  F  F6006  1  0.66005354  0.02094021  0.69585540  1.0
  F  F6007  1  0.66005354  0.11184930  0.69585540  1.0
  F  F6008  1  0.66005354  0.20275839  0.69585540  1.0
  F  F6009  1  0.66005354  0.29366748  0.69585540  1.0
  F  F6010  1  0.66005354  0.38457657  0.69585540  1.0
  F  F6011  1  0.66005354  0.47548566  0.69585540  1.0
  F  F6012  1  0.66005354  0.56639475  0.69585540  1.0
  F  F6013  1  0.66005354  0.65730384  0.69585540  1.0
  F  F6014  1  0.66005354  0.74821293  0.69585540  1.0
  F  F6015  1  0.66005354  0.83912202  0.69585540  1.0
  F  F6016  1  0.66005354  0.93003112  0.69585540  1.0
  F  F6017  1  0.75096263  0.02094021  0.69585540  1.0
  F  F6018  1  0.75096263  0.11184930  0.69585540  1.0
  F  F6019  1  0.75096263  0.20275839  0.69585540  1.0
  F  F6020  1  0.75096263  0.29366748  0.69585540  1.0
  F  F6021  1  0.75096263  0.38457657  0.69585540  1.0
  F  F6022  1  0.75096263  0.47548566  0.69585540  1.0
  F  F6023  1  0.75096263  0.56639475  0.69585540  1.0
  F  F6024  1  0.75096263  0.65730384  0.69585540  1.0
  F  F6025  1  0.75096263  0.74821293  0.69585540  1.0
  F  F6026  1  0.75096263  0.83912202  0.69585540  1.0
  F  F6027  1  0.75096263  0.93003112  0.69585540  1.0
  F  F6028  1  0.84187172  0.02094021  0.69585540  1.0
  F  F6029  1  0.84187172  0.11184930  0.69585540  1.0
  F  F6030  1  0.84187172  0.20275839  0.69585540  1.0
  F  F6031  1  0.84187172  0.29366748  0.69585540  1.0
  F  F6032  1  0.84187172  0.38457657  0.69585540  1.0
  F  F6033  1  0.84187172  0.47548566  0.69585540  1.0
  F  F6034  1  0.84187172  0.56639475  0.69585540  1.0
  F  F6035  1  0.84187172  0.65730384  0.69585540  1.0
  F  F6036  1  0.84187172  0.74821293  0.69585540  1.0
  F  F6037  1  0.84187172  0.83912202  0.69585540  1.0
  F  F6038  1  0.84187172  0.93003112  0.69585540  1.0
  F  F6039  1  0.93278081  0.02094021  0.69585540  1.0
  F  F6040  1  0.93278081  0.11184930  0.69585540  1.0
  F  F6041  1  0.93278081  0.20275839  0.69585540  1.0
  F  F6042  1  0.93278081  0.29366748  0.69585540  1.0
  F  F6043  1  0.93278081  0.38457657  0.69585540  1.0
  F  F6044  1  0.93278081  0.47548566  0.69585540  1.0
  F  F6045  1  0.93278081  0.56639475  0.69585540  1.0
  F  F6046  1  0.93278081  0.65730384  0.69585540  1.0
  F  F6047  1  0.93278081  0.74821293  0.69585540  1.0
  F  F6048  1  0.93278081  0.83912202  0.69585540  1.0
  F  F6049  1  0.93278081  0.93003112  0.69585540  1.0
  F  F6050  1  0.06702125  0.02124009  0.62852687  1.0
  F  F6051  1  0.06702125  0.11214918  0.62852687  1.0
  F  F6052  1  0.06702125  0.20305827  0.62852687  1.0
  F  F6053  1  0.06702125  0.29396736  0.62852687  1.0
  F  F6054  1  0.06702125  0.38487645  0.62852687  1.0
  F  F6055  1  0.06702125  0.47578554  0.62852687  1.0
  F  F6056  1  0.06702125  0.56669463  0.62852687  1.0
  F  F6057  1  0.06702125  0.65760372  0.62852687  1.0
  F  F6058  1  0.06702125  0.74851281  0.62852687  1.0
  F  F6059  1  0.06702125  0.83942191  0.62852687  1.0
  F  F6060  1  0.06702125  0.93033100  0.62852687  1.0
  F  F6061  1  0.15793034  0.02124009  0.62852687  1.0
  F  F6062  1  0.15793034  0.11214918  0.62852687  1.0
  F  F6063  1  0.15793034  0.20305827  0.62852687  1.0
  F  F6064  1  0.15793034  0.29396736  0.62852687  1.0
  F  F6065  1  0.15793034  0.38487645  0.62852687  1.0
  F  F6066  1  0.15793034  0.47578554  0.62852687  1.0
  F  F6067  1  0.15793034  0.56669463  0.62852687  1.0
  F  F6068  1  0.15793034  0.65760372  0.62852687  1.0
  F  F6069  1  0.15793034  0.74851281  0.62852687  1.0
  F  F6070  1  0.15793034  0.83942191  0.62852687  1.0
  F  F6071  1  0.15793034  0.93033100  0.62852687  1.0
  F  F6072  1  0.24883943  0.02124009  0.62852687  1.0
  F  F6073  1  0.24883943  0.11214918  0.62852687  1.0
  F  F6074  1  0.24883943  0.20305827  0.62852687  1.0
  F  F6075  1  0.24883943  0.29396736  0.62852687  1.0
  F  F6076  1  0.24883943  0.38487645  0.62852687  1.0
  F  F6077  1  0.24883943  0.47578554  0.62852687  1.0
  F  F6078  1  0.24883943  0.56669463  0.62852687  1.0
  F  F6079  1  0.24883943  0.65760372  0.62852687  1.0
  F  F6080  1  0.24883943  0.74851281  0.62852687  1.0
  F  F6081  1  0.24883943  0.83942191  0.62852687  1.0
  F  F6082  1  0.24883943  0.93033100  0.62852687  1.0
  F  F6083  1  0.33974852  0.02124009  0.62852687  1.0
  F  F6084  1  0.33974852  0.11214918  0.62852687  1.0
  F  F6085  1  0.33974852  0.20305827  0.62852687  1.0
  F  F6086  1  0.33974852  0.29396736  0.62852687  1.0
  F  F6087  1  0.33974852  0.38487645  0.62852687  1.0
  F  F6088  1  0.33974852  0.47578554  0.62852687  1.0
  F  F6089  1  0.33974852  0.56669463  0.62852687  1.0
  F  F6090  1  0.33974852  0.65760372  0.62852687  1.0
  F  F6091  1  0.33974852  0.74851281  0.62852687  1.0
  F  F6092  1  0.33974852  0.83942191  0.62852687  1.0
  F  F6093  1  0.33974852  0.93033100  0.62852687  1.0
  F  F6094  1  0.43065762  0.02124009  0.62852687  1.0
  F  F6095  1  0.43065762  0.11214918  0.62852687  1.0
  F  F6096  1  0.43065762  0.20305827  0.62852687  1.0
  F  F6097  1  0.43065762  0.29396736  0.62852687  1.0
  F  F6098  1  0.43065762  0.38487645  0.62852687  1.0
  F  F6099  1  0.43065762  0.47578554  0.62852687  1.0
  F  F6100  1  0.43065762  0.56669463  0.62852687  1.0
  F  F6101  1  0.43065762  0.65760372  0.62852687  1.0
  F  F6102  1  0.43065762  0.74851281  0.62852687  1.0
  F  F6103  1  0.43065762  0.83942191  0.62852687  1.0
  F  F6104  1  0.43065762  0.93033100  0.62852687  1.0
  F  F6105  1  0.52156671  0.02124009  0.62852687  1.0
  F  F6106  1  0.52156671  0.11214918  0.62852687  1.0
  F  F6107  1  0.52156671  0.20305827  0.62852687  1.0
  F  F6108  1  0.52156671  0.29396736  0.62852687  1.0
  F  F6109  1  0.52156671  0.38487645  0.62852687  1.0
  F  F6110  1  0.52156671  0.47578554  0.62852687  1.0
  F  F6111  1  0.52156671  0.56669463  0.62852687  1.0
  F  F6112  1  0.52156671  0.65760372  0.62852687  1.0
  F  F6113  1  0.52156671  0.74851281  0.62852687  1.0
  F  F6114  1  0.52156671  0.83942191  0.62852687  1.0
  F  F6115  1  0.52156671  0.93033100  0.62852687  1.0
  F  F6116  1  0.61247580  0.02124009  0.62852687  1.0
  F  F6117  1  0.61247580  0.11214918  0.62852687  1.0
  F  F6118  1  0.61247580  0.20305827  0.62852687  1.0
  F  F6119  1  0.61247580  0.29396736  0.62852687  1.0
  F  F6120  1  0.61247580  0.38487645  0.62852687  1.0
  F  F6121  1  0.61247580  0.47578554  0.62852687  1.0
  F  F6122  1  0.61247580  0.56669463  0.62852687  1.0
  F  F6123  1  0.61247580  0.65760372  0.62852687  1.0
  F  F6124  1  0.61247580  0.74851281  0.62852687  1.0
  F  F6125  1  0.61247580  0.83942191  0.62852687  1.0
  F  F6126  1  0.61247580  0.93033100  0.62852687  1.0
  F  F6127  1  0.70338489  0.02124009  0.62852687  1.0
  F  F6128  1  0.70338489  0.11214918  0.62852687  1.0
  F  F6129  1  0.70338489  0.20305827  0.62852687  1.0
  F  F6130  1  0.70338489  0.29396736  0.62852687  1.0
  F  F6131  1  0.70338489  0.38487645  0.62852687  1.0
  F  F6132  1  0.70338489  0.47578554  0.62852687  1.0
  F  F6133  1  0.70338489  0.56669463  0.62852687  1.0
  F  F6134  1  0.70338489  0.65760372  0.62852687  1.0
  F  F6135  1  0.70338489  0.74851281  0.62852687  1.0
  F  F6136  1  0.70338489  0.83942191  0.62852687  1.0
  F  F6137  1  0.70338489  0.93033100  0.62852687  1.0
  F  F6138  1  0.79429398  0.02124009  0.62852687  1.0
  F  F6139  1  0.79429398  0.11214918  0.62852687  1.0
  F  F6140  1  0.79429398  0.20305827  0.62852687  1.0
  F  F6141  1  0.79429398  0.29396736  0.62852687  1.0
  F  F6142  1  0.79429398  0.38487645  0.62852687  1.0
  F  F6143  1  0.79429398  0.47578554  0.62852687  1.0
  F  F6144  1  0.79429398  0.56669463  0.62852687  1.0
  F  F6145  1  0.79429398  0.65760372  0.62852687  1.0
  F  F6146  1  0.79429398  0.74851281  0.62852687  1.0
  F  F6147  1  0.79429398  0.83942191  0.62852687  1.0
  F  F6148  1  0.79429398  0.93033100  0.62852687  1.0
  F  F6149  1  0.88520307  0.02124009  0.62852687  1.0
  F  F6150  1  0.88520307  0.11214918  0.62852687  1.0
  F  F6151  1  0.88520307  0.20305827  0.62852687  1.0
  F  F6152  1  0.88520307  0.29396736  0.62852687  1.0
  F  F6153  1  0.88520307  0.38487645  0.62852687  1.0
  F  F6154  1  0.88520307  0.47578554  0.62852687  1.0
  F  F6155  1  0.88520307  0.56669463  0.62852687  1.0
  F  F6156  1  0.88520307  0.65760372  0.62852687  1.0
  F  F6157  1  0.88520307  0.74851281  0.62852687  1.0
  F  F6158  1  0.88520307  0.83942191  0.62852687  1.0
  F  F6159  1  0.88520307  0.93033100  0.62852687  1.0
  F  F6160  1  0.97611216  0.02124009  0.62852687  1.0
  F  F6161  1  0.97611216  0.11214918  0.62852687  1.0
  F  F6162  1  0.97611216  0.20305827  0.62852687  1.0
  F  F6163  1  0.97611216  0.29396736  0.62852687  1.0
  F  F6164  1  0.97611216  0.38487645  0.62852687  1.0
  F  F6165  1  0.97611216  0.47578554  0.62852687  1.0
  F  F6166  1  0.97611216  0.56669463  0.62852687  1.0
  F  F6167  1  0.97611216  0.65760372  0.62852687  1.0
  F  F6168  1  0.97611216  0.74851281  0.62852687  1.0
  F  F6169  1  0.97611216  0.83942191  0.62852687  1.0
  F  F6170  1  0.97611216  0.93033100  0.62852687  1.0
  F  F6171  1  0.02156671  0.06669463  0.69995544  1.0
  F  F6172  1  0.02156671  0.15760372  0.69995544  1.0
  F  F6173  1  0.02156671  0.24851281  0.69995544  1.0
  F  F6174  1  0.02156671  0.33942191  0.69995544  1.0
  F  F6175  1  0.02156671  0.43033100  0.69995544  1.0
  F  F6176  1  0.02156671  0.52124009  0.69995544  1.0
  F  F6177  1  0.02156671  0.61214918  0.69995544  1.0
  F  F6178  1  0.02156671  0.70305827  0.69995544  1.0
  F  F6179  1  0.02156671  0.79396736  0.69995544  1.0
  F  F6180  1  0.02156671  0.88487645  0.69995544  1.0
  F  F6181  1  0.02156671  0.97578554  0.69995544  1.0
  F  F6182  1  0.11247580  0.06669463  0.69995544  1.0
  F  F6183  1  0.11247580  0.15760372  0.69995544  1.0
  F  F6184  1  0.11247580  0.24851281  0.69995544  1.0
  F  F6185  1  0.11247580  0.33942191  0.69995544  1.0
  F  F6186  1  0.11247580  0.43033100  0.69995544  1.0
  F  F6187  1  0.11247580  0.52124009  0.69995544  1.0
  F  F6188  1  0.11247580  0.61214918  0.69995544  1.0
  F  F6189  1  0.11247580  0.70305827  0.69995544  1.0
  F  F6190  1  0.11247580  0.79396736  0.69995544  1.0
  F  F6191  1  0.11247580  0.88487645  0.69995544  1.0
  F  F6192  1  0.11247580  0.97578554  0.69995544  1.0
  F  F6193  1  0.20338489  0.06669463  0.69995544  1.0
  F  F6194  1  0.20338489  0.15760372  0.69995544  1.0
  F  F6195  1  0.20338489  0.24851281  0.69995544  1.0
  F  F6196  1  0.20338489  0.33942191  0.69995544  1.0
  F  F6197  1  0.20338489  0.43033100  0.69995544  1.0
  F  F6198  1  0.20338489  0.52124009  0.69995544  1.0
  F  F6199  1  0.20338489  0.61214918  0.69995544  1.0
  F  F6200  1  0.20338489  0.70305827  0.69995544  1.0
  F  F6201  1  0.20338489  0.79396736  0.69995544  1.0
  F  F6202  1  0.20338489  0.88487645  0.69995544  1.0
  F  F6203  1  0.20338489  0.97578554  0.69995544  1.0
  F  F6204  1  0.29429398  0.06669463  0.69995544  1.0
  F  F6205  1  0.29429398  0.15760372  0.69995544  1.0
  F  F6206  1  0.29429398  0.24851281  0.69995544  1.0
  F  F6207  1  0.29429398  0.33942191  0.69995544  1.0
  F  F6208  1  0.29429398  0.43033100  0.69995544  1.0
  F  F6209  1  0.29429398  0.52124009  0.69995544  1.0
  F  F6210  1  0.29429398  0.61214918  0.69995544  1.0
  F  F6211  1  0.29429398  0.70305827  0.69995544  1.0
  F  F6212  1  0.29429398  0.79396736  0.69995544  1.0
  F  F6213  1  0.29429398  0.88487645  0.69995544  1.0
  F  F6214  1  0.29429398  0.97578554  0.69995544  1.0
  F  F6215  1  0.38520307  0.06669463  0.69995544  1.0
  F  F6216  1  0.38520307  0.15760372  0.69995544  1.0
  F  F6217  1  0.38520307  0.24851281  0.69995544  1.0
  F  F6218  1  0.38520307  0.33942191  0.69995544  1.0
  F  F6219  1  0.38520307  0.43033100  0.69995544  1.0
  F  F6220  1  0.38520307  0.52124009  0.69995544  1.0
  F  F6221  1  0.38520307  0.61214918  0.69995544  1.0
  F  F6222  1  0.38520307  0.70305827  0.69995544  1.0
  F  F6223  1  0.38520307  0.79396736  0.69995544  1.0
  F  F6224  1  0.38520307  0.88487645  0.69995544  1.0
  F  F6225  1  0.38520307  0.97578554  0.69995544  1.0
  F  F6226  1  0.47611216  0.06669463  0.69995544  1.0
  F  F6227  1  0.47611216  0.15760372  0.69995544  1.0
  F  F6228  1  0.47611216  0.24851281  0.69995544  1.0
  F  F6229  1  0.47611216  0.33942191  0.69995544  1.0
  F  F6230  1  0.47611216  0.43033100  0.69995544  1.0
  F  F6231  1  0.47611216  0.52124009  0.69995544  1.0
  F  F6232  1  0.47611216  0.61214918  0.69995544  1.0
  F  F6233  1  0.47611216  0.70305827  0.69995544  1.0
  F  F6234  1  0.47611216  0.79396736  0.69995544  1.0
  F  F6235  1  0.47611216  0.88487645  0.69995544  1.0
  F  F6236  1  0.47611216  0.97578554  0.69995544  1.0
  F  F6237  1  0.56702125  0.06669463  0.69995544  1.0
  F  F6238  1  0.56702125  0.15760372  0.69995544  1.0
  F  F6239  1  0.56702125  0.24851281  0.69995544  1.0
  F  F6240  1  0.56702125  0.33942191  0.69995544  1.0
  F  F6241  1  0.56702125  0.43033100  0.69995544  1.0
  F  F6242  1  0.56702125  0.52124009  0.69995544  1.0
  F  F6243  1  0.56702125  0.61214918  0.69995544  1.0
  F  F6244  1  0.56702125  0.70305827  0.69995544  1.0
  F  F6245  1  0.56702125  0.79396736  0.69995544  1.0
  F  F6246  1  0.56702125  0.88487645  0.69995544  1.0
  F  F6247  1  0.56702125  0.97578554  0.69995544  1.0
  F  F6248  1  0.65793034  0.06669463  0.69995544  1.0
  F  F6249  1  0.65793034  0.15760372  0.69995544  1.0
  F  F6250  1  0.65793034  0.24851281  0.69995544  1.0
  F  F6251  1  0.65793034  0.33942191  0.69995544  1.0
  F  F6252  1  0.65793034  0.43033100  0.69995544  1.0
  F  F6253  1  0.65793034  0.52124009  0.69995544  1.0
  F  F6254  1  0.65793034  0.61214918  0.69995544  1.0
  F  F6255  1  0.65793034  0.70305827  0.69995544  1.0
  F  F6256  1  0.65793034  0.79396736  0.69995544  1.0
  F  F6257  1  0.65793034  0.88487645  0.69995544  1.0
  F  F6258  1  0.65793034  0.97578554  0.69995544  1.0
  F  F6259  1  0.74883943  0.06669463  0.69995544  1.0
  F  F6260  1  0.74883943  0.15760372  0.69995544  1.0
  F  F6261  1  0.74883943  0.24851281  0.69995544  1.0
  F  F6262  1  0.74883943  0.33942191  0.69995544  1.0
  F  F6263  1  0.74883943  0.43033100  0.69995544  1.0
  F  F6264  1  0.74883943  0.52124009  0.69995544  1.0
  F  F6265  1  0.74883943  0.61214918  0.69995544  1.0
  F  F6266  1  0.74883943  0.70305827  0.69995544  1.0
  F  F6267  1  0.74883943  0.79396736  0.69995544  1.0
  F  F6268  1  0.74883943  0.88487645  0.69995544  1.0
  F  F6269  1  0.74883943  0.97578554  0.69995544  1.0
  F  F6270  1  0.83974852  0.06669463  0.69995544  1.0
  F  F6271  1  0.83974852  0.15760372  0.69995544  1.0
  F  F6272  1  0.83974852  0.24851281  0.69995544  1.0
  F  F6273  1  0.83974852  0.33942191  0.69995544  1.0
  F  F6274  1  0.83974852  0.43033100  0.69995544  1.0
  F  F6275  1  0.83974852  0.52124009  0.69995544  1.0
  F  F6276  1  0.83974852  0.61214918  0.69995544  1.0
  F  F6277  1  0.83974852  0.70305827  0.69995544  1.0
  F  F6278  1  0.83974852  0.79396736  0.69995544  1.0
  F  F6279  1  0.83974852  0.88487645  0.69995544  1.0
  F  F6280  1  0.83974852  0.97578554  0.69995544  1.0
  F  F6281  1  0.93065762  0.06669463  0.69995544  1.0
  F  F6282  1  0.93065762  0.15760372  0.69995544  1.0
  F  F6283  1  0.93065762  0.24851281  0.69995544  1.0
  F  F6284  1  0.93065762  0.33942191  0.69995544  1.0
  F  F6285  1  0.93065762  0.43033100  0.69995544  1.0
  F  F6286  1  0.93065762  0.52124009  0.69995544  1.0
  F  F6287  1  0.93065762  0.61214918  0.69995544  1.0
  F  F6288  1  0.93065762  0.70305827  0.69995544  1.0
  F  F6289  1  0.93065762  0.79396736  0.69995544  1.0
  F  F6290  1  0.93065762  0.88487645  0.69995544  1.0
  F  F6291  1  0.93065762  0.97578554  0.69995544  1.0
  F  F6292  1  0.04530487  0.04828615  0.66274399  1.0
  F  F6293  1  0.04530487  0.13919524  0.66274399  1.0
  F  F6294  1  0.04530487  0.23010433  0.66274399  1.0
  F  F6295  1  0.04530487  0.32101342  0.66274399  1.0
  F  F6296  1  0.04530487  0.41192251  0.66274399  1.0
  F  F6297  1  0.04530487  0.50283160  0.66274399  1.0
  F  F6298  1  0.04530487  0.59374070  0.66274399  1.0
  F  F6299  1  0.04530487  0.68464979  0.66274399  1.0
  F  F6300  1  0.04530487  0.77555888  0.66274399  1.0
  F  F6301  1  0.04530487  0.86646797  0.66274399  1.0
  F  F6302  1  0.04530487  0.95737706  0.66274399  1.0
  F  F6303  1  0.13621396  0.04828615  0.66274399  1.0
  F  F6304  1  0.13621396  0.13919524  0.66274399  1.0
  F  F6305  1  0.13621396  0.23010433  0.66274399  1.0
  F  F6306  1  0.13621396  0.32101342  0.66274399  1.0
  F  F6307  1  0.13621396  0.41192251  0.66274399  1.0
  F  F6308  1  0.13621396  0.50283160  0.66274399  1.0
  F  F6309  1  0.13621396  0.59374070  0.66274399  1.0
  F  F6310  1  0.13621396  0.68464979  0.66274399  1.0
  F  F6311  1  0.13621396  0.77555888  0.66274399  1.0
  F  F6312  1  0.13621396  0.86646797  0.66274399  1.0
  F  F6313  1  0.13621396  0.95737706  0.66274399  1.0
  F  F6314  1  0.22712305  0.04828615  0.66274399  1.0
  F  F6315  1  0.22712305  0.13919524  0.66274399  1.0
  F  F6316  1  0.22712305  0.23010433  0.66274399  1.0
  F  F6317  1  0.22712305  0.32101342  0.66274399  1.0
  F  F6318  1  0.22712305  0.41192251  0.66274399  1.0
  F  F6319  1  0.22712305  0.50283160  0.66274399  1.0
  F  F6320  1  0.22712305  0.59374070  0.66274399  1.0
  F  F6321  1  0.22712305  0.68464979  0.66274399  1.0
  F  F6322  1  0.22712305  0.77555888  0.66274399  1.0
  F  F6323  1  0.22712305  0.86646797  0.66274399  1.0
  F  F6324  1  0.22712305  0.95737706  0.66274399  1.0
  F  F6325  1  0.31803214  0.04828615  0.66274399  1.0
  F  F6326  1  0.31803214  0.13919524  0.66274399  1.0
  F  F6327  1  0.31803214  0.23010433  0.66274399  1.0
  F  F6328  1  0.31803214  0.32101342  0.66274399  1.0
  F  F6329  1  0.31803214  0.41192251  0.66274399  1.0
  F  F6330  1  0.31803214  0.50283160  0.66274399  1.0
  F  F6331  1  0.31803214  0.59374070  0.66274399  1.0
  F  F6332  1  0.31803214  0.68464979  0.66274399  1.0
  F  F6333  1  0.31803214  0.77555888  0.66274399  1.0
  F  F6334  1  0.31803214  0.86646797  0.66274399  1.0
  F  F6335  1  0.31803214  0.95737706  0.66274399  1.0
  F  F6336  1  0.40894123  0.04828615  0.66274399  1.0
  F  F6337  1  0.40894123  0.13919524  0.66274399  1.0
  F  F6338  1  0.40894123  0.23010433  0.66274399  1.0
  F  F6339  1  0.40894123  0.32101342  0.66274399  1.0
  F  F6340  1  0.40894123  0.41192251  0.66274399  1.0
  F  F6341  1  0.40894123  0.50283160  0.66274399  1.0
  F  F6342  1  0.40894123  0.59374070  0.66274399  1.0
  F  F6343  1  0.40894123  0.68464979  0.66274399  1.0
  F  F6344  1  0.40894123  0.77555888  0.66274399  1.0
  F  F6345  1  0.40894123  0.86646797  0.66274399  1.0
  F  F6346  1  0.40894123  0.95737706  0.66274399  1.0
  F  F6347  1  0.49985032  0.04828615  0.66274399  1.0
  F  F6348  1  0.49985032  0.13919524  0.66274399  1.0
  F  F6349  1  0.49985032  0.23010433  0.66274399  1.0
  F  F6350  1  0.49985032  0.32101342  0.66274399  1.0
  F  F6351  1  0.49985032  0.41192251  0.66274399  1.0
  F  F6352  1  0.49985032  0.50283160  0.66274399  1.0
  F  F6353  1  0.49985032  0.59374070  0.66274399  1.0
  F  F6354  1  0.49985032  0.68464979  0.66274399  1.0
  F  F6355  1  0.49985032  0.77555888  0.66274399  1.0
  F  F6356  1  0.49985032  0.86646797  0.66274399  1.0
  F  F6357  1  0.49985032  0.95737706  0.66274399  1.0
  F  F6358  1  0.59075941  0.04828615  0.66274399  1.0
  F  F6359  1  0.59075941  0.13919524  0.66274399  1.0
  F  F6360  1  0.59075941  0.23010433  0.66274399  1.0
  F  F6361  1  0.59075941  0.32101342  0.66274399  1.0
  F  F6362  1  0.59075941  0.41192251  0.66274399  1.0
  F  F6363  1  0.59075941  0.50283160  0.66274399  1.0
  F  F6364  1  0.59075941  0.59374070  0.66274399  1.0
  F  F6365  1  0.59075941  0.68464979  0.66274399  1.0
  F  F6366  1  0.59075941  0.77555888  0.66274399  1.0
  F  F6367  1  0.59075941  0.86646797  0.66274399  1.0
  F  F6368  1  0.59075941  0.95737706  0.66274399  1.0
  F  F6369  1  0.68166850  0.04828615  0.66274399  1.0
  F  F6370  1  0.68166850  0.13919524  0.66274399  1.0
  F  F6371  1  0.68166850  0.23010433  0.66274399  1.0
  F  F6372  1  0.68166850  0.32101342  0.66274399  1.0
  F  F6373  1  0.68166850  0.41192251  0.66274399  1.0
  F  F6374  1  0.68166850  0.50283160  0.66274399  1.0
  F  F6375  1  0.68166850  0.59374070  0.66274399  1.0
  F  F6376  1  0.68166850  0.68464979  0.66274399  1.0
  F  F6377  1  0.68166850  0.77555888  0.66274399  1.0
  F  F6378  1  0.68166850  0.86646797  0.66274399  1.0
  F  F6379  1  0.68166850  0.95737706  0.66274399  1.0
  F  F6380  1  0.77257760  0.04828615  0.66274399  1.0
  F  F6381  1  0.77257760  0.13919524  0.66274399  1.0
  F  F6382  1  0.77257760  0.23010433  0.66274399  1.0
  F  F6383  1  0.77257760  0.32101342  0.66274399  1.0
  F  F6384  1  0.77257760  0.41192251  0.66274399  1.0
  F  F6385  1  0.77257760  0.50283160  0.66274399  1.0
  F  F6386  1  0.77257760  0.59374070  0.66274399  1.0
  F  F6387  1  0.77257760  0.68464979  0.66274399  1.0
  F  F6388  1  0.77257760  0.77555888  0.66274399  1.0
  F  F6389  1  0.77257760  0.86646797  0.66274399  1.0
  F  F6390  1  0.77257760  0.95737706  0.66274399  1.0
  F  F6391  1  0.86348669  0.04828615  0.66274399  1.0
  F  F6392  1  0.86348669  0.13919524  0.66274399  1.0
  F  F6393  1  0.86348669  0.23010433  0.66274399  1.0
  F  F6394  1  0.86348669  0.32101342  0.66274399  1.0
  F  F6395  1  0.86348669  0.41192251  0.66274399  1.0
  F  F6396  1  0.86348669  0.50283160  0.66274399  1.0
  F  F6397  1  0.86348669  0.59374070  0.66274399  1.0
  F  F6398  1  0.86348669  0.68464979  0.66274399  1.0
  F  F6399  1  0.86348669  0.77555888  0.66274399  1.0
  F  F6400  1  0.86348669  0.86646797  0.66274399  1.0
  F  F6401  1  0.86348669  0.95737706  0.66274399  1.0
  F  F6402  1  0.95439578  0.04828615  0.66274399  1.0
  F  F6403  1  0.95439578  0.13919524  0.66274399  1.0
  F  F6404  1  0.95439578  0.23010433  0.66274399  1.0
  F  F6405  1  0.95439578  0.32101342  0.66274399  1.0
  F  F6406  1  0.95439578  0.41192251  0.66274399  1.0
  F  F6407  1  0.95439578  0.50283160  0.66274399  1.0
  F  F6408  1  0.95439578  0.59374070  0.66274399  1.0
  F  F6409  1  0.95439578  0.68464979  0.66274399  1.0
  F  F6410  1  0.95439578  0.77555888  0.66274399  1.0
  F  F6411  1  0.95439578  0.86646797  0.66274399  1.0
  F  F6412  1  0.95439578  0.95737706  0.66274399  1.0
  F  F6413  1  0.09075941  0.00283160  0.73417256  1.0
  F  F6414  1  0.09075941  0.09374070  0.73417256  1.0
  F  F6415  1  0.09075941  0.18464979  0.73417256  1.0
  F  F6416  1  0.09075941  0.27555888  0.73417256  1.0
  F  F6417  1  0.09075941  0.36646797  0.73417256  1.0
  F  F6418  1  0.09075941  0.45737706  0.73417256  1.0
  F  F6419  1  0.09075941  0.54828615  0.73417256  1.0
  F  F6420  1  0.09075941  0.63919524  0.73417256  1.0
  F  F6421  1  0.09075941  0.73010433  0.73417256  1.0
  F  F6422  1  0.09075941  0.82101342  0.73417256  1.0
  F  F6423  1  0.09075941  0.91192251  0.73417256  1.0
  F  F6424  1  0.18166850  0.00283160  0.73417256  1.0
  F  F6425  1  0.18166850  0.09374070  0.73417256  1.0
  F  F6426  1  0.18166850  0.18464979  0.73417256  1.0
  F  F6427  1  0.18166850  0.27555888  0.73417256  1.0
  F  F6428  1  0.18166850  0.36646797  0.73417256  1.0
  F  F6429  1  0.18166850  0.45737706  0.73417256  1.0
  F  F6430  1  0.18166850  0.54828615  0.73417256  1.0
  F  F6431  1  0.18166850  0.63919524  0.73417256  1.0
  F  F6432  1  0.18166850  0.73010433  0.73417256  1.0
  F  F6433  1  0.18166850  0.82101342  0.73417256  1.0
  F  F6434  1  0.18166850  0.91192251  0.73417256  1.0
  F  F6435  1  0.27257760  0.00283160  0.73417256  1.0
  F  F6436  1  0.27257760  0.09374070  0.73417256  1.0
  F  F6437  1  0.27257760  0.18464979  0.73417256  1.0
  F  F6438  1  0.27257760  0.27555888  0.73417256  1.0
  F  F6439  1  0.27257760  0.36646797  0.73417256  1.0
  F  F6440  1  0.27257760  0.45737706  0.73417256  1.0
  F  F6441  1  0.27257760  0.54828615  0.73417256  1.0
  F  F6442  1  0.27257760  0.63919524  0.73417256  1.0
  F  F6443  1  0.27257760  0.73010433  0.73417256  1.0
  F  F6444  1  0.27257760  0.82101342  0.73417256  1.0
  F  F6445  1  0.27257760  0.91192251  0.73417256  1.0
  F  F6446  1  0.36348669  0.00283160  0.73417256  1.0
  F  F6447  1  0.36348669  0.09374070  0.73417256  1.0
  F  F6448  1  0.36348669  0.18464979  0.73417256  1.0
  F  F6449  1  0.36348669  0.27555888  0.73417256  1.0
  F  F6450  1  0.36348669  0.36646797  0.73417256  1.0
  F  F6451  1  0.36348669  0.45737706  0.73417256  1.0
  F  F6452  1  0.36348669  0.54828615  0.73417256  1.0
  F  F6453  1  0.36348669  0.63919524  0.73417256  1.0
  F  F6454  1  0.36348669  0.73010433  0.73417256  1.0
  F  F6455  1  0.36348669  0.82101342  0.73417256  1.0
  F  F6456  1  0.36348669  0.91192251  0.73417256  1.0
  F  F6457  1  0.45439578  0.00283160  0.73417256  1.0
  F  F6458  1  0.45439578  0.09374070  0.73417256  1.0
  F  F6459  1  0.45439578  0.18464979  0.73417256  1.0
  F  F6460  1  0.45439578  0.27555888  0.73417256  1.0
  F  F6461  1  0.45439578  0.36646797  0.73417256  1.0
  F  F6462  1  0.45439578  0.45737706  0.73417256  1.0
  F  F6463  1  0.45439578  0.54828615  0.73417256  1.0
  F  F6464  1  0.45439578  0.63919524  0.73417256  1.0
  F  F6465  1  0.45439578  0.73010433  0.73417256  1.0
  F  F6466  1  0.45439578  0.82101342  0.73417256  1.0
  F  F6467  1  0.45439578  0.91192251  0.73417256  1.0
  F  F6468  1  0.54530487  0.00283160  0.73417256  1.0
  F  F6469  1  0.54530487  0.09374070  0.73417256  1.0
  F  F6470  1  0.54530487  0.18464979  0.73417256  1.0
  F  F6471  1  0.54530487  0.27555888  0.73417256  1.0
  F  F6472  1  0.54530487  0.36646797  0.73417256  1.0
  F  F6473  1  0.54530487  0.45737706  0.73417256  1.0
  F  F6474  1  0.54530487  0.54828615  0.73417256  1.0
  F  F6475  1  0.54530487  0.63919524  0.73417256  1.0
  F  F6476  1  0.54530487  0.73010433  0.73417256  1.0
  F  F6477  1  0.54530487  0.82101342  0.73417256  1.0
  F  F6478  1  0.54530487  0.91192251  0.73417256  1.0
  F  F6479  1  0.63621396  0.00283160  0.73417256  1.0
  F  F6480  1  0.63621396  0.09374070  0.73417256  1.0
  F  F6481  1  0.63621396  0.18464979  0.73417256  1.0
  F  F6482  1  0.63621396  0.27555888  0.73417256  1.0
  F  F6483  1  0.63621396  0.36646797  0.73417256  1.0
  F  F6484  1  0.63621396  0.45737706  0.73417256  1.0
  F  F6485  1  0.63621396  0.54828615  0.73417256  1.0
  F  F6486  1  0.63621396  0.63919524  0.73417256  1.0
  F  F6487  1  0.63621396  0.73010433  0.73417256  1.0
  F  F6488  1  0.63621396  0.82101342  0.73417256  1.0
  F  F6489  1  0.63621396  0.91192251  0.73417256  1.0
  F  F6490  1  0.72712305  0.00283160  0.73417256  1.0
  F  F6491  1  0.72712305  0.09374070  0.73417256  1.0
  F  F6492  1  0.72712305  0.18464979  0.73417256  1.0
  F  F6493  1  0.72712305  0.27555888  0.73417256  1.0
  F  F6494  1  0.72712305  0.36646797  0.73417256  1.0
  F  F6495  1  0.72712305  0.45737706  0.73417256  1.0
  F  F6496  1  0.72712305  0.54828615  0.73417256  1.0
  F  F6497  1  0.72712305  0.63919524  0.73417256  1.0
  F  F6498  1  0.72712305  0.73010433  0.73417256  1.0
  F  F6499  1  0.72712305  0.82101342  0.73417256  1.0
  F  F6500  1  0.72712305  0.91192251  0.73417256  1.0
  F  F6501  1  0.81803214  0.00283160  0.73417256  1.0
  F  F6502  1  0.81803214  0.09374070  0.73417256  1.0
  F  F6503  1  0.81803214  0.18464979  0.73417256  1.0
  F  F6504  1  0.81803214  0.27555888  0.73417256  1.0
  F  F6505  1  0.81803214  0.36646797  0.73417256  1.0
  F  F6506  1  0.81803214  0.45737706  0.73417256  1.0
  F  F6507  1  0.81803214  0.54828615  0.73417256  1.0
  F  F6508  1  0.81803214  0.63919524  0.73417256  1.0
  F  F6509  1  0.81803214  0.73010433  0.73417256  1.0
  F  F6510  1  0.81803214  0.82101342  0.73417256  1.0
  F  F6511  1  0.81803214  0.91192251  0.73417256  1.0
  F  F6512  1  0.90894123  0.00283160  0.73417256  1.0
  F  F6513  1  0.90894123  0.09374070  0.73417256  1.0
  F  F6514  1  0.90894123  0.18464979  0.73417256  1.0
  F  F6515  1  0.90894123  0.27555888  0.73417256  1.0
  F  F6516  1  0.90894123  0.36646797  0.73417256  1.0
  F  F6517  1  0.90894123  0.45737706  0.73417256  1.0
  F  F6518  1  0.90894123  0.54828615  0.73417256  1.0
  F  F6519  1  0.90894123  0.63919524  0.73417256  1.0
  F  F6520  1  0.90894123  0.73010433  0.73417256  1.0
  F  F6521  1  0.90894123  0.82101342  0.73417256  1.0
  F  F6522  1  0.90894123  0.91192251  0.73417256  1.0
  F  F6523  1  0.99985032  0.00283160  0.73417256  1.0
  F  F6524  1  0.99985032  0.09374070  0.73417256  1.0
  F  F6525  1  0.99985032  0.18464979  0.73417256  1.0
  F  F6526  1  0.99985032  0.27555888  0.73417256  1.0
  F  F6527  1  0.99985032  0.36646797  0.73417256  1.0
  F  F6528  1  0.99985032  0.45737706  0.73417256  1.0
  F  F6529  1  0.99985032  0.54828615  0.73417256  1.0
  F  F6530  1  0.99985032  0.63919524  0.73417256  1.0
  F  F6531  1  0.99985032  0.73010433  0.73417256  1.0
  F  F6532  1  0.99985032  0.82101342  0.73417256  1.0
  F  F6533  1  0.99985032  0.91192251  0.73417256  1.0
  F  F6534  1  0.02176464  0.02451434  0.62868208  1.0
  F  F6535  1  0.02176464  0.11542343  0.62868208  1.0
  F  F6536  1  0.02176464  0.20633252  0.62868208  1.0
  F  F6537  1  0.02176464  0.29724161  0.62868208  1.0
  F  F6538  1  0.02176464  0.38815070  0.62868208  1.0
  F  F6539  1  0.02176464  0.47905979  0.62868208  1.0
  F  F6540  1  0.02176464  0.56996888  0.62868208  1.0
  F  F6541  1  0.02176464  0.66087798  0.62868208  1.0
  F  F6542  1  0.02176464  0.75178707  0.62868208  1.0
  F  F6543  1  0.02176464  0.84269616  0.62868208  1.0
  F  F6544  1  0.02176464  0.93360525  0.62868208  1.0
  F  F6545  1  0.11267373  0.02451434  0.62868208  1.0
  F  F6546  1  0.11267373  0.11542343  0.62868208  1.0
  F  F6547  1  0.11267373  0.20633252  0.62868208  1.0
  F  F6548  1  0.11267373  0.29724161  0.62868208  1.0
  F  F6549  1  0.11267373  0.38815070  0.62868208  1.0
  F  F6550  1  0.11267373  0.47905979  0.62868208  1.0
  F  F6551  1  0.11267373  0.56996888  0.62868208  1.0
  F  F6552  1  0.11267373  0.66087798  0.62868208  1.0
  F  F6553  1  0.11267373  0.75178707  0.62868208  1.0
  F  F6554  1  0.11267373  0.84269616  0.62868208  1.0
  F  F6555  1  0.11267373  0.93360525  0.62868208  1.0
  F  F6556  1  0.20358282  0.02451434  0.62868208  1.0
  F  F6557  1  0.20358282  0.11542343  0.62868208  1.0
  F  F6558  1  0.20358282  0.20633252  0.62868208  1.0
  F  F6559  1  0.20358282  0.29724161  0.62868208  1.0
  F  F6560  1  0.20358282  0.38815070  0.62868208  1.0
  F  F6561  1  0.20358282  0.47905979  0.62868208  1.0
  F  F6562  1  0.20358282  0.56996888  0.62868208  1.0
  F  F6563  1  0.20358282  0.66087798  0.62868208  1.0
  F  F6564  1  0.20358282  0.75178707  0.62868208  1.0
  F  F6565  1  0.20358282  0.84269616  0.62868208  1.0
  F  F6566  1  0.20358282  0.93360525  0.62868208  1.0
  F  F6567  1  0.29449191  0.02451434  0.62868208  1.0
  F  F6568  1  0.29449191  0.11542343  0.62868208  1.0
  F  F6569  1  0.29449191  0.20633252  0.62868208  1.0
  F  F6570  1  0.29449191  0.29724161  0.62868208  1.0
  F  F6571  1  0.29449191  0.38815070  0.62868208  1.0
  F  F6572  1  0.29449191  0.47905979  0.62868208  1.0
  F  F6573  1  0.29449191  0.56996888  0.62868208  1.0
  F  F6574  1  0.29449191  0.66087798  0.62868208  1.0
  F  F6575  1  0.29449191  0.75178707  0.62868208  1.0
  F  F6576  1  0.29449191  0.84269616  0.62868208  1.0
  F  F6577  1  0.29449191  0.93360525  0.62868208  1.0
  F  F6578  1  0.38540101  0.02451434  0.62868208  1.0
  F  F6579  1  0.38540101  0.11542343  0.62868208  1.0
  F  F6580  1  0.38540101  0.20633252  0.62868208  1.0
  F  F6581  1  0.38540101  0.29724161  0.62868208  1.0
  F  F6582  1  0.38540101  0.38815070  0.62868208  1.0
  F  F6583  1  0.38540101  0.47905979  0.62868208  1.0
  F  F6584  1  0.38540101  0.56996888  0.62868208  1.0
  F  F6585  1  0.38540101  0.66087798  0.62868208  1.0
  F  F6586  1  0.38540101  0.75178707  0.62868208  1.0
  F  F6587  1  0.38540101  0.84269616  0.62868208  1.0
  F  F6588  1  0.38540101  0.93360525  0.62868208  1.0
  F  F6589  1  0.47631010  0.02451434  0.62868208  1.0
  F  F6590  1  0.47631010  0.11542343  0.62868208  1.0
  F  F6591  1  0.47631010  0.20633252  0.62868208  1.0
  F  F6592  1  0.47631010  0.29724161  0.62868208  1.0
  F  F6593  1  0.47631010  0.38815070  0.62868208  1.0
  F  F6594  1  0.47631010  0.47905979  0.62868208  1.0
  F  F6595  1  0.47631010  0.56996888  0.62868208  1.0
  F  F6596  1  0.47631010  0.66087798  0.62868208  1.0
  F  F6597  1  0.47631010  0.75178707  0.62868208  1.0
  F  F6598  1  0.47631010  0.84269616  0.62868208  1.0
  F  F6599  1  0.47631010  0.93360525  0.62868208  1.0
  F  F6600  1  0.56721919  0.02451434  0.62868208  1.0
  F  F6601  1  0.56721919  0.11542343  0.62868208  1.0
  F  F6602  1  0.56721919  0.20633252  0.62868208  1.0
  F  F6603  1  0.56721919  0.29724161  0.62868208  1.0
  F  F6604  1  0.56721919  0.38815070  0.62868208  1.0
  F  F6605  1  0.56721919  0.47905979  0.62868208  1.0
  F  F6606  1  0.56721919  0.56996888  0.62868208  1.0
  F  F6607  1  0.56721919  0.66087798  0.62868208  1.0
  F  F6608  1  0.56721919  0.75178707  0.62868208  1.0
  F  F6609  1  0.56721919  0.84269616  0.62868208  1.0
  F  F6610  1  0.56721919  0.93360525  0.62868208  1.0
  F  F6611  1  0.65812828  0.02451434  0.62868208  1.0
  F  F6612  1  0.65812828  0.11542343  0.62868208  1.0
  F  F6613  1  0.65812828  0.20633252  0.62868208  1.0
  F  F6614  1  0.65812828  0.29724161  0.62868208  1.0
  F  F6615  1  0.65812828  0.38815070  0.62868208  1.0
  F  F6616  1  0.65812828  0.47905979  0.62868208  1.0
  F  F6617  1  0.65812828  0.56996888  0.62868208  1.0
  F  F6618  1  0.65812828  0.66087798  0.62868208  1.0
  F  F6619  1  0.65812828  0.75178707  0.62868208  1.0
  F  F6620  1  0.65812828  0.84269616  0.62868208  1.0
  F  F6621  1  0.65812828  0.93360525  0.62868208  1.0
  F  F6622  1  0.74903737  0.02451434  0.62868208  1.0
  F  F6623  1  0.74903737  0.11542343  0.62868208  1.0
  F  F6624  1  0.74903737  0.20633252  0.62868208  1.0
  F  F6625  1  0.74903737  0.29724161  0.62868208  1.0
  F  F6626  1  0.74903737  0.38815070  0.62868208  1.0
  F  F6627  1  0.74903737  0.47905979  0.62868208  1.0
  F  F6628  1  0.74903737  0.56996888  0.62868208  1.0
  F  F6629  1  0.74903737  0.66087798  0.62868208  1.0
  F  F6630  1  0.74903737  0.75178707  0.62868208  1.0
  F  F6631  1  0.74903737  0.84269616  0.62868208  1.0
  F  F6632  1  0.74903737  0.93360525  0.62868208  1.0
  F  F6633  1  0.83994646  0.02451434  0.62868208  1.0
  F  F6634  1  0.83994646  0.11542343  0.62868208  1.0
  F  F6635  1  0.83994646  0.20633252  0.62868208  1.0
  F  F6636  1  0.83994646  0.29724161  0.62868208  1.0
  F  F6637  1  0.83994646  0.38815070  0.62868208  1.0
  F  F6638  1  0.83994646  0.47905979  0.62868208  1.0
  F  F6639  1  0.83994646  0.56996888  0.62868208  1.0
  F  F6640  1  0.83994646  0.66087798  0.62868208  1.0
  F  F6641  1  0.83994646  0.75178707  0.62868208  1.0
  F  F6642  1  0.83994646  0.84269616  0.62868208  1.0
  F  F6643  1  0.83994646  0.93360525  0.62868208  1.0
  F  F6644  1  0.93085555  0.02451434  0.62868208  1.0
  F  F6645  1  0.93085555  0.11542343  0.62868208  1.0
  F  F6646  1  0.93085555  0.20633252  0.62868208  1.0
  F  F6647  1  0.93085555  0.29724161  0.62868208  1.0
  F  F6648  1  0.93085555  0.38815070  0.62868208  1.0
  F  F6649  1  0.93085555  0.47905979  0.62868208  1.0
  F  F6650  1  0.93085555  0.56996888  0.62868208  1.0
  F  F6651  1  0.93085555  0.66087798  0.62868208  1.0
  F  F6652  1  0.93085555  0.75178707  0.62868208  1.0
  F  F6653  1  0.93085555  0.84269616  0.62868208  1.0
  F  F6654  1  0.93085555  0.93360525  0.62868208  1.0
  F  F6655  1  0.06721919  0.06996888  0.70011065  1.0
  F  F6656  1  0.06721919  0.16087798  0.70011065  1.0
  F  F6657  1  0.06721919  0.25178707  0.70011065  1.0
  F  F6658  1  0.06721919  0.34269616  0.70011065  1.0
  F  F6659  1  0.06721919  0.43360525  0.70011065  1.0
  F  F6660  1  0.06721919  0.52451434  0.70011065  1.0
  F  F6661  1  0.06721919  0.61542343  0.70011065  1.0
  F  F6662  1  0.06721919  0.70633252  0.70011065  1.0
  F  F6663  1  0.06721919  0.79724161  0.70011065  1.0
  F  F6664  1  0.06721919  0.88815070  0.70011065  1.0
  F  F6665  1  0.06721919  0.97905979  0.70011065  1.0
  F  F6666  1  0.15812828  0.06996888  0.70011065  1.0
  F  F6667  1  0.15812828  0.16087798  0.70011065  1.0
  F  F6668  1  0.15812828  0.25178707  0.70011065  1.0
  F  F6669  1  0.15812828  0.34269616  0.70011065  1.0
  F  F6670  1  0.15812828  0.43360525  0.70011065  1.0
  F  F6671  1  0.15812828  0.52451434  0.70011065  1.0
  F  F6672  1  0.15812828  0.61542343  0.70011065  1.0
  F  F6673  1  0.15812828  0.70633252  0.70011065  1.0
  F  F6674  1  0.15812828  0.79724161  0.70011065  1.0
  F  F6675  1  0.15812828  0.88815070  0.70011065  1.0
  F  F6676  1  0.15812828  0.97905979  0.70011065  1.0
  F  F6677  1  0.24903737  0.06996888  0.70011065  1.0
  F  F6678  1  0.24903737  0.16087798  0.70011065  1.0
  F  F6679  1  0.24903737  0.25178707  0.70011065  1.0
  F  F6680  1  0.24903737  0.34269616  0.70011065  1.0
  F  F6681  1  0.24903737  0.43360525  0.70011065  1.0
  F  F6682  1  0.24903737  0.52451434  0.70011065  1.0
  F  F6683  1  0.24903737  0.61542343  0.70011065  1.0
  F  F6684  1  0.24903737  0.70633252  0.70011065  1.0
  F  F6685  1  0.24903737  0.79724161  0.70011065  1.0
  F  F6686  1  0.24903737  0.88815070  0.70011065  1.0
  F  F6687  1  0.24903737  0.97905979  0.70011065  1.0
  F  F6688  1  0.33994646  0.06996888  0.70011065  1.0
  F  F6689  1  0.33994646  0.16087798  0.70011065  1.0
  F  F6690  1  0.33994646  0.25178707  0.70011065  1.0
  F  F6691  1  0.33994646  0.34269616  0.70011065  1.0
  F  F6692  1  0.33994646  0.43360525  0.70011065  1.0
  F  F6693  1  0.33994646  0.52451434  0.70011065  1.0
  F  F6694  1  0.33994646  0.61542343  0.70011065  1.0
  F  F6695  1  0.33994646  0.70633252  0.70011065  1.0
  F  F6696  1  0.33994646  0.79724161  0.70011065  1.0
  F  F6697  1  0.33994646  0.88815070  0.70011065  1.0
  F  F6698  1  0.33994646  0.97905979  0.70011065  1.0
  F  F6699  1  0.43085555  0.06996888  0.70011065  1.0
  F  F6700  1  0.43085555  0.16087798  0.70011065  1.0
  F  F6701  1  0.43085555  0.25178707  0.70011065  1.0
  F  F6702  1  0.43085555  0.34269616  0.70011065  1.0
  F  F6703  1  0.43085555  0.43360525  0.70011065  1.0
  F  F6704  1  0.43085555  0.52451434  0.70011065  1.0
  F  F6705  1  0.43085555  0.61542343  0.70011065  1.0
  F  F6706  1  0.43085555  0.70633252  0.70011065  1.0
  F  F6707  1  0.43085555  0.79724161  0.70011065  1.0
  F  F6708  1  0.43085555  0.88815070  0.70011065  1.0
  F  F6709  1  0.43085555  0.97905979  0.70011065  1.0
  F  F6710  1  0.52176464  0.06996888  0.70011065  1.0
  F  F6711  1  0.52176464  0.16087798  0.70011065  1.0
  F  F6712  1  0.52176464  0.25178707  0.70011065  1.0
  F  F6713  1  0.52176464  0.34269616  0.70011065  1.0
  F  F6714  1  0.52176464  0.43360525  0.70011065  1.0
  F  F6715  1  0.52176464  0.52451434  0.70011065  1.0
  F  F6716  1  0.52176464  0.61542343  0.70011065  1.0
  F  F6717  1  0.52176464  0.70633252  0.70011065  1.0
  F  F6718  1  0.52176464  0.79724161  0.70011065  1.0
  F  F6719  1  0.52176464  0.88815070  0.70011065  1.0
  F  F6720  1  0.52176464  0.97905979  0.70011065  1.0
  F  F6721  1  0.61267373  0.06996888  0.70011065  1.0
  F  F6722  1  0.61267373  0.16087798  0.70011065  1.0
  F  F6723  1  0.61267373  0.25178707  0.70011065  1.0
  F  F6724  1  0.61267373  0.34269616  0.70011065  1.0
  F  F6725  1  0.61267373  0.43360525  0.70011065  1.0
  F  F6726  1  0.61267373  0.52451434  0.70011065  1.0
  F  F6727  1  0.61267373  0.61542343  0.70011065  1.0
  F  F6728  1  0.61267373  0.70633252  0.70011065  1.0
  F  F6729  1  0.61267373  0.79724161  0.70011065  1.0
  F  F6730  1  0.61267373  0.88815070  0.70011065  1.0
  F  F6731  1  0.61267373  0.97905979  0.70011065  1.0
  F  F6732  1  0.70358282  0.06996888  0.70011065  1.0
  F  F6733  1  0.70358282  0.16087798  0.70011065  1.0
  F  F6734  1  0.70358282  0.25178707  0.70011065  1.0
  F  F6735  1  0.70358282  0.34269616  0.70011065  1.0
  F  F6736  1  0.70358282  0.43360525  0.70011065  1.0
  F  F6737  1  0.70358282  0.52451434  0.70011065  1.0
  F  F6738  1  0.70358282  0.61542343  0.70011065  1.0
  F  F6739  1  0.70358282  0.70633252  0.70011065  1.0
  F  F6740  1  0.70358282  0.79724161  0.70011065  1.0
  F  F6741  1  0.70358282  0.88815070  0.70011065  1.0
  F  F6742  1  0.70358282  0.97905979  0.70011065  1.0
  F  F6743  1  0.79449192  0.06996888  0.70011065  1.0
  F  F6744  1  0.79449191  0.16087798  0.70011065  1.0
  F  F6745  1  0.79449191  0.25178707  0.70011065  1.0
  F  F6746  1  0.79449191  0.34269616  0.70011065  1.0
  F  F6747  1  0.79449192  0.43360525  0.70011065  1.0
  F  F6748  1  0.79449191  0.52451434  0.70011065  1.0
  F  F6749  1  0.79449191  0.61542343  0.70011065  1.0
  F  F6750  1  0.79449191  0.70633252  0.70011065  1.0
  F  F6751  1  0.79449191  0.79724161  0.70011065  1.0
  F  F6752  1  0.79449192  0.88815070  0.70011065  1.0
  F  F6753  1  0.79449191  0.97905979  0.70011065  1.0
  F  F6754  1  0.88540101  0.06996888  0.70011065  1.0
  F  F6755  1  0.88540101  0.16087798  0.70011065  1.0
  F  F6756  1  0.88540101  0.25178707  0.70011065  1.0
  F  F6757  1  0.88540101  0.34269616  0.70011065  1.0
  F  F6758  1  0.88540101  0.43360525  0.70011065  1.0
  F  F6759  1  0.88540101  0.52451434  0.70011065  1.0
  F  F6760  1  0.88540101  0.61542343  0.70011065  1.0
  F  F6761  1  0.88540101  0.70633252  0.70011065  1.0
  F  F6762  1  0.88540101  0.79724161  0.70011065  1.0
  F  F6763  1  0.88540101  0.88815070  0.70011065  1.0
  F  F6764  1  0.88540101  0.97905979  0.70011065  1.0
  F  F6765  1  0.97631010  0.06996888  0.70011065  1.0
  F  F6766  1  0.97631010  0.16087798  0.70011065  1.0
  F  F6767  1  0.97631010  0.25178707  0.70011065  1.0
  F  F6768  1  0.97631010  0.34269616  0.70011065  1.0
  F  F6769  1  0.97631010  0.43360525  0.70011065  1.0
  F  F6770  1  0.97631010  0.52451434  0.70011065  1.0
  F  F6771  1  0.97631010  0.61542343  0.70011065  1.0
  F  F6772  1  0.97631010  0.70633252  0.70011065  1.0
  F  F6773  1  0.97631010  0.79724161  0.70011065  1.0
  F  F6774  1  0.97631010  0.88815070  0.70011065  1.0
  F  F6775  1  0.97631010  0.97905979  0.70011065  1.0
  F  F6776  1  0.04560422  0.04262294  0.73322207  1.0
  F  F6777  1  0.04560422  0.13353203  0.73322207  1.0
  F  F6778  1  0.04560422  0.22444112  0.73322207  1.0
  F  F6779  1  0.04560422  0.31535021  0.73322207  1.0
  F  F6780  1  0.04560422  0.40625930  0.73322207  1.0
  F  F6781  1  0.04560422  0.49716840  0.73322207  1.0
  F  F6782  1  0.04560422  0.58807749  0.73322207  1.0
  F  F6783  1  0.04560422  0.67898658  0.73322207  1.0
  F  F6784  1  0.04560422  0.76989567  0.73322207  1.0
  F  F6785  1  0.04560422  0.86080476  0.73322207  1.0
  F  F6786  1  0.04560422  0.95171385  0.73322207  1.0
  F  F6787  1  0.13651331  0.04262294  0.73322207  1.0
  F  F6788  1  0.13651331  0.13353203  0.73322207  1.0
  F  F6789  1  0.13651331  0.22444112  0.73322207  1.0
  F  F6790  1  0.13651331  0.31535021  0.73322207  1.0
  F  F6791  1  0.13651331  0.40625930  0.73322207  1.0
  F  F6792  1  0.13651331  0.49716840  0.73322207  1.0
  F  F6793  1  0.13651331  0.58807749  0.73322207  1.0
  F  F6794  1  0.13651331  0.67898658  0.73322207  1.0
  F  F6795  1  0.13651331  0.76989567  0.73322207  1.0
  F  F6796  1  0.13651331  0.86080476  0.73322207  1.0
  F  F6797  1  0.13651331  0.95171385  0.73322207  1.0
  F  F6798  1  0.22742240  0.04262294  0.73322207  1.0
  F  F6799  1  0.22742240  0.13353203  0.73322207  1.0
  F  F6800  1  0.22742240  0.22444112  0.73322207  1.0
  F  F6801  1  0.22742240  0.31535021  0.73322207  1.0
  F  F6802  1  0.22742240  0.40625930  0.73322207  1.0
  F  F6803  1  0.22742240  0.49716840  0.73322207  1.0
  F  F6804  1  0.22742240  0.58807749  0.73322207  1.0
  F  F6805  1  0.22742240  0.67898658  0.73322207  1.0
  F  F6806  1  0.22742240  0.76989567  0.73322207  1.0
  F  F6807  1  0.22742240  0.86080476  0.73322207  1.0
  F  F6808  1  0.22742240  0.95171385  0.73322207  1.0
  F  F6809  1  0.31833150  0.04262294  0.73322207  1.0
  F  F6810  1  0.31833150  0.13353203  0.73322207  1.0
  F  F6811  1  0.31833150  0.22444112  0.73322207  1.0
  F  F6812  1  0.31833150  0.31535021  0.73322207  1.0
  F  F6813  1  0.31833150  0.40625930  0.73322207  1.0
  F  F6814  1  0.31833150  0.49716840  0.73322207  1.0
  F  F6815  1  0.31833150  0.58807749  0.73322207  1.0
  F  F6816  1  0.31833150  0.67898658  0.73322207  1.0
  F  F6817  1  0.31833150  0.76989567  0.73322207  1.0
  F  F6818  1  0.31833150  0.86080476  0.73322207  1.0
  F  F6819  1  0.31833150  0.95171385  0.73322207  1.0
  F  F6820  1  0.40924059  0.04262294  0.73322207  1.0
  F  F6821  1  0.40924059  0.13353203  0.73322207  1.0
  F  F6822  1  0.40924059  0.22444112  0.73322207  1.0
  F  F6823  1  0.40924059  0.31535021  0.73322207  1.0
  F  F6824  1  0.40924059  0.40625930  0.73322207  1.0
  F  F6825  1  0.40924059  0.49716840  0.73322207  1.0
  F  F6826  1  0.40924059  0.58807749  0.73322207  1.0
  F  F6827  1  0.40924059  0.67898658  0.73322207  1.0
  F  F6828  1  0.40924059  0.76989567  0.73322207  1.0
  F  F6829  1  0.40924059  0.86080476  0.73322207  1.0
  F  F6830  1  0.40924059  0.95171385  0.73322207  1.0
  F  F6831  1  0.50014968  0.04262294  0.73322207  1.0
  F  F6832  1  0.50014968  0.13353203  0.73322207  1.0
  F  F6833  1  0.50014968  0.22444112  0.73322207  1.0
  F  F6834  1  0.50014968  0.31535021  0.73322207  1.0
  F  F6835  1  0.50014968  0.40625930  0.73322207  1.0
  F  F6836  1  0.50014968  0.49716840  0.73322207  1.0
  F  F6837  1  0.50014968  0.58807749  0.73322207  1.0
  F  F6838  1  0.50014968  0.67898658  0.73322207  1.0
  F  F6839  1  0.50014968  0.76989567  0.73322207  1.0
  F  F6840  1  0.50014968  0.86080476  0.73322207  1.0
  F  F6841  1  0.50014968  0.95171385  0.73322207  1.0
  F  F6842  1  0.59105877  0.04262294  0.73322207  1.0
  F  F6843  1  0.59105877  0.13353203  0.73322207  1.0
  F  F6844  1  0.59105877  0.22444112  0.73322207  1.0
  F  F6845  1  0.59105877  0.31535021  0.73322207  1.0
  F  F6846  1  0.59105877  0.40625930  0.73322207  1.0
  F  F6847  1  0.59105877  0.49716840  0.73322207  1.0
  F  F6848  1  0.59105877  0.58807749  0.73322207  1.0
  F  F6849  1  0.59105877  0.67898658  0.73322207  1.0
  F  F6850  1  0.59105877  0.76989567  0.73322207  1.0
  F  F6851  1  0.59105877  0.86080476  0.73322207  1.0
  F  F6852  1  0.59105877  0.95171385  0.73322207  1.0
  F  F6853  1  0.68196786  0.04262294  0.73322207  1.0
  F  F6854  1  0.68196786  0.13353203  0.73322207  1.0
  F  F6855  1  0.68196786  0.22444112  0.73322207  1.0
  F  F6856  1  0.68196786  0.31535021  0.73322207  1.0
  F  F6857  1  0.68196786  0.40625930  0.73322207  1.0
  F  F6858  1  0.68196786  0.49716840  0.73322207  1.0
  F  F6859  1  0.68196786  0.58807749  0.73322207  1.0
  F  F6860  1  0.68196786  0.67898658  0.73322207  1.0
  F  F6861  1  0.68196786  0.76989567  0.73322207  1.0
  F  F6862  1  0.68196786  0.86080476  0.73322207  1.0
  F  F6863  1  0.68196786  0.95171385  0.73322207  1.0
  F  F6864  1  0.77287695  0.04262294  0.73322207  1.0
  F  F6865  1  0.77287695  0.13353203  0.73322207  1.0
  F  F6866  1  0.77287695  0.22444112  0.73322207  1.0
  F  F6867  1  0.77287695  0.31535021  0.73322207  1.0
  F  F6868  1  0.77287695  0.40625930  0.73322207  1.0
  F  F6869  1  0.77287695  0.49716840  0.73322207  1.0
  F  F6870  1  0.77287695  0.58807749  0.73322207  1.0
  F  F6871  1  0.77287695  0.67898658  0.73322207  1.0
  F  F6872  1  0.77287695  0.76989567  0.73322207  1.0
  F  F6873  1  0.77287695  0.86080476  0.73322207  1.0
  F  F6874  1  0.77287695  0.95171385  0.73322207  1.0
  F  F6875  1  0.86378604  0.04262294  0.73322207  1.0
  F  F6876  1  0.86378604  0.13353203  0.73322207  1.0
  F  F6877  1  0.86378604  0.22444112  0.73322207  1.0
  F  F6878  1  0.86378604  0.31535021  0.73322207  1.0
  F  F6879  1  0.86378604  0.40625930  0.73322207  1.0
  F  F6880  1  0.86378604  0.49716840  0.73322207  1.0
  F  F6881  1  0.86378604  0.58807749  0.73322207  1.0
  F  F6882  1  0.86378604  0.67898658  0.73322207  1.0
  F  F6883  1  0.86378604  0.76989567  0.73322207  1.0
  F  F6884  1  0.86378604  0.86080476  0.73322207  1.0
  F  F6885  1  0.86378604  0.95171385  0.73322207  1.0
  F  F6886  1  0.95469513  0.04262294  0.73322207  1.0
  F  F6887  1  0.95469513  0.13353203  0.73322207  1.0
  F  F6888  1  0.95469513  0.22444112  0.73322207  1.0
  F  F6889  1  0.95469513  0.31535021  0.73322207  1.0
  F  F6890  1  0.95469513  0.40625930  0.73322207  1.0
  F  F6891  1  0.95469513  0.49716840  0.73322207  1.0
  F  F6892  1  0.95469513  0.58807749  0.73322207  1.0
  F  F6893  1  0.95469513  0.67898658  0.73322207  1.0
  F  F6894  1  0.95469513  0.76989567  0.73322207  1.0
  F  F6895  1  0.95469513  0.86080476  0.73322207  1.0
  F  F6896  1  0.95469513  0.95171385  0.73322207  1.0
  F  F6897  1  0.00014968  0.08807749  0.66179350  1.0
  F  F6898  1  0.00014968  0.17898658  0.66179350  1.0
  F  F6899  1  0.00014968  0.26989567  0.66179350  1.0
  F  F6900  1  0.00014968  0.36080476  0.66179350  1.0
  F  F6901  1  0.00014968  0.45171385  0.66179350  1.0
  F  F6902  1  0.00014968  0.54262294  0.66179350  1.0
  F  F6903  1  0.00014968  0.63353203  0.66179350  1.0
  F  F6904  1  0.00014968  0.72444112  0.66179350  1.0
  F  F6905  1  0.00014968  0.81535021  0.66179350  1.0
  F  F6906  1  0.00014968  0.90625930  0.66179350  1.0
  F  F6907  1  0.00014968  0.99716840  0.66179350  1.0
  F  F6908  1  0.09105877  0.08807749  0.66179350  1.0
  F  F6909  1  0.09105877  0.17898658  0.66179350  1.0
  F  F6910  1  0.09105877  0.26989567  0.66179350  1.0
  F  F6911  1  0.09105877  0.36080476  0.66179350  1.0
  F  F6912  1  0.09105877  0.45171385  0.66179350  1.0
  F  F6913  1  0.09105877  0.54262294  0.66179350  1.0
  F  F6914  1  0.09105877  0.63353203  0.66179350  1.0
  F  F6915  1  0.09105877  0.72444112  0.66179350  1.0
  F  F6916  1  0.09105877  0.81535021  0.66179350  1.0
  F  F6917  1  0.09105877  0.90625930  0.66179350  1.0
  F  F6918  1  0.09105877  0.99716840  0.66179350  1.0
  F  F6919  1  0.18196786  0.08807749  0.66179350  1.0
  F  F6920  1  0.18196786  0.17898658  0.66179350  1.0
  F  F6921  1  0.18196786  0.26989567  0.66179350  1.0
  F  F6922  1  0.18196786  0.36080476  0.66179350  1.0
  F  F6923  1  0.18196786  0.45171385  0.66179350  1.0
  F  F6924  1  0.18196786  0.54262294  0.66179350  1.0
  F  F6925  1  0.18196786  0.63353203  0.66179350  1.0
  F  F6926  1  0.18196786  0.72444112  0.66179350  1.0
  F  F6927  1  0.18196786  0.81535021  0.66179350  1.0
  F  F6928  1  0.18196786  0.90625930  0.66179350  1.0
  F  F6929  1  0.18196786  0.99716840  0.66179350  1.0
  F  F6930  1  0.27287695  0.08807749  0.66179350  1.0
  F  F6931  1  0.27287695  0.17898658  0.66179350  1.0
  F  F6932  1  0.27287695  0.26989567  0.66179350  1.0
  F  F6933  1  0.27287695  0.36080476  0.66179350  1.0
  F  F6934  1  0.27287695  0.45171385  0.66179350  1.0
  F  F6935  1  0.27287695  0.54262294  0.66179350  1.0
  F  F6936  1  0.27287695  0.63353203  0.66179350  1.0
  F  F6937  1  0.27287695  0.72444112  0.66179350  1.0
  F  F6938  1  0.27287695  0.81535021  0.66179350  1.0
  F  F6939  1  0.27287695  0.90625930  0.66179350  1.0
  F  F6940  1  0.27287695  0.99716840  0.66179350  1.0
  F  F6941  1  0.36378604  0.08807749  0.66179350  1.0
  F  F6942  1  0.36378604  0.17898658  0.66179350  1.0
  F  F6943  1  0.36378604  0.26989567  0.66179350  1.0
  F  F6944  1  0.36378604  0.36080476  0.66179350  1.0
  F  F6945  1  0.36378604  0.45171385  0.66179350  1.0
  F  F6946  1  0.36378604  0.54262294  0.66179350  1.0
  F  F6947  1  0.36378604  0.63353203  0.66179350  1.0
  F  F6948  1  0.36378604  0.72444112  0.66179350  1.0
  F  F6949  1  0.36378604  0.81535021  0.66179350  1.0
  F  F6950  1  0.36378604  0.90625930  0.66179350  1.0
  F  F6951  1  0.36378604  0.99716840  0.66179350  1.0
  F  F6952  1  0.45469513  0.08807749  0.66179350  1.0
  F  F6953  1  0.45469513  0.17898658  0.66179350  1.0
  F  F6954  1  0.45469513  0.26989567  0.66179350  1.0
  F  F6955  1  0.45469513  0.36080476  0.66179350  1.0
  F  F6956  1  0.45469513  0.45171385  0.66179350  1.0
  F  F6957  1  0.45469513  0.54262294  0.66179350  1.0
  F  F6958  1  0.45469513  0.63353203  0.66179350  1.0
  F  F6959  1  0.45469513  0.72444112  0.66179350  1.0
  F  F6960  1  0.45469513  0.81535021  0.66179350  1.0
  F  F6961  1  0.45469513  0.90625930  0.66179350  1.0
  F  F6962  1  0.45469513  0.99716840  0.66179350  1.0
  F  F6963  1  0.54560422  0.08807749  0.66179350  1.0
  F  F6964  1  0.54560422  0.17898658  0.66179350  1.0
  F  F6965  1  0.54560422  0.26989567  0.66179350  1.0
  F  F6966  1  0.54560422  0.36080476  0.66179350  1.0
  F  F6967  1  0.54560422  0.45171385  0.66179350  1.0
  F  F6968  1  0.54560422  0.54262294  0.66179350  1.0
  F  F6969  1  0.54560422  0.63353203  0.66179350  1.0
  F  F6970  1  0.54560422  0.72444112  0.66179350  1.0
  F  F6971  1  0.54560422  0.81535021  0.66179350  1.0
  F  F6972  1  0.54560422  0.90625930  0.66179350  1.0
  F  F6973  1  0.54560422  0.99716840  0.66179350  1.0
  F  F6974  1  0.63651331  0.08807749  0.66179350  1.0
  F  F6975  1  0.63651331  0.17898658  0.66179350  1.0
  F  F6976  1  0.63651331  0.26989567  0.66179350  1.0
  F  F6977  1  0.63651331  0.36080476  0.66179350  1.0
  F  F6978  1  0.63651331  0.45171385  0.66179350  1.0
  F  F6979  1  0.63651331  0.54262294  0.66179350  1.0
  F  F6980  1  0.63651331  0.63353203  0.66179350  1.0
  F  F6981  1  0.63651331  0.72444112  0.66179350  1.0
  F  F6982  1  0.63651331  0.81535021  0.66179350  1.0
  F  F6983  1  0.63651331  0.90625930  0.66179350  1.0
  F  F6984  1  0.63651331  0.99716840  0.66179350  1.0
  F  F6985  1  0.72742240  0.08807749  0.66179350  1.0
  F  F6986  1  0.72742240  0.17898658  0.66179350  1.0
  F  F6987  1  0.72742240  0.26989567  0.66179350  1.0
  F  F6988  1  0.72742240  0.36080476  0.66179350  1.0
  F  F6989  1  0.72742240  0.45171385  0.66179350  1.0
  F  F6990  1  0.72742240  0.54262294  0.66179350  1.0
  F  F6991  1  0.72742240  0.63353203  0.66179350  1.0
  F  F6992  1  0.72742240  0.72444112  0.66179350  1.0
  F  F6993  1  0.72742240  0.81535021  0.66179350  1.0
  F  F6994  1  0.72742240  0.90625930  0.66179350  1.0
  F  F6995  1  0.72742240  0.99716840  0.66179350  1.0
  F  F6996  1  0.81833150  0.08807749  0.66179350  1.0
  F  F6997  1  0.81833150  0.17898658  0.66179350  1.0
  F  F6998  1  0.81833150  0.26989567  0.66179350  1.0
  F  F6999  1  0.81833150  0.36080476  0.66179350  1.0
  F  F7000  1  0.81833150  0.45171385  0.66179350  1.0
  F  F7001  1  0.81833150  0.54262294  0.66179350  1.0
  F  F7002  1  0.81833150  0.63353203  0.66179350  1.0
  F  F7003  1  0.81833150  0.72444112  0.66179350  1.0
  F  F7004  1  0.81833150  0.81535021  0.66179350  1.0
  F  F7005  1  0.81833150  0.90625930  0.66179350  1.0
  F  F7006  1  0.81833150  0.99716840  0.66179350  1.0
  F  F7007  1  0.90924059  0.08807749  0.66179350  1.0
  F  F7008  1  0.90924059  0.17898658  0.66179350  1.0
  F  F7009  1  0.90924059  0.26989567  0.66179350  1.0
  F  F7010  1  0.90924059  0.36080476  0.66179350  1.0
  F  F7011  1  0.90924059  0.45171385  0.66179350  1.0
  F  F7012  1  0.90924059  0.54262294  0.66179350  1.0
  F  F7013  1  0.90924059  0.63353203  0.66179350  1.0
  F  F7014  1  0.90924059  0.72444112  0.66179350  1.0
  F  F7015  1  0.90924059  0.81535021  0.66179350  1.0
  F  F7016  1  0.90924059  0.90625930  0.66179350  1.0
  F  F7017  1  0.90924059  0.99716840  0.66179350  1.0
