# generated using pymatgen
data_Ti
_symmetry_space_group_name_H-M   'P 1'
_cell_length_a   63.94325588
_cell_length_b   63.94323938
_cell_length_c   127.18099215
_cell_angle_alpha   90.00000000
_cell_angle_beta   90.00000000
_cell_angle_gamma   119.99999364
_symmetry_Int_Tables_number   1
_chemical_formula_structural   Ti
_chemical_formula_sum   Ti14700
_cell_volume   450341.78835741
_cell_formula_units_Z   14700
loop_
 _symmetry_equiv_pos_site_id
 _symmetry_equiv_pos_as_xyz
  1  'x, y, z'
loop_
 _atom_site_type_symbol
 _atom_site_label
 _atom_site_symmetry_multiplicity
 _atom_site_fract_x
 _atom_site_fract_y
 _atom_site_fract_z
 _atom_site_occupancy
  Ti  Ti0  1  0.00000000  0.00000000  0.24074074  1
  Ti  Ti1  1  0.00000000  0.07142857  0.24074074  1
  Ti  Ti2  1  0.00000000  0.14285714  0.24074074  1
  Ti  Ti3  1  0.00000000  0.21428571  0.24074074  1
  Ti  Ti4  1  0.00000000  0.28571429  0.24074074  1
  Ti  Ti5  1  0.00000000  0.35714286  0.24074074  1
  Ti  Ti6  1  0.00000000  0.42857143  0.24074074  1
  Ti  Ti7  1  0.00000000  0.50000000  0.24074074  1
  Ti  Ti8  1  0.00000000  0.57142857  0.24074074  1
  Ti  Ti9  1  0.00000000  0.64285714  0.24074074  1
  Ti  Ti10  1  0.00000000  0.71428571  0.24074074  1
  Ti  Ti11  1  1.00000000  0.78571429  0.24074074  1
  Ti  Ti12  1  0.00000000  0.85714286  0.24074074  1
  Ti  Ti13  1  0.00000000  0.92857143  0.24074074  1
  Ti  Ti14  1  0.07142857  0.00000000  0.24074074  1
  Ti  Ti15  1  0.07142857  0.07142857  0.24074074  1
  Ti  Ti16  1  0.07142857  0.14285714  0.24074074  1
  Ti  Ti17  1  0.07142857  0.21428571  0.24074074  1
  Ti  Ti18  1  0.07142857  0.28571429  0.24074074  1
  Ti  Ti19  1  0.07142857  0.35714286  0.24074074  1
  Ti  Ti20  1  0.07142857  0.42857143  0.24074074  1
  Ti  Ti21  1  0.07142857  0.50000000  0.24074074  1
  Ti  Ti22  1  0.07142857  0.57142857  0.24074074  1
  Ti  Ti23  1  0.07142857  0.64285714  0.24074074  1
  Ti  Ti24  1  0.07142857  0.71428571  0.24074074  1
  Ti  Ti25  1  0.07142857  0.78571429  0.24074074  1
  Ti  Ti26  1  0.07142857  0.85714286  0.24074074  1
  Ti  Ti27  1  0.07142857  0.92857143  0.24074074  1
  Ti  Ti28  1  0.14285714  0.00000000  0.24074074  1
  Ti  Ti29  1  0.14285714  0.07142857  0.24074074  1
  Ti  Ti30  1  0.14285714  0.14285714  0.24074074  1
  Ti  Ti31  1  0.14285714  0.21428571  0.24074074  1
  Ti  Ti32  1  0.14285714  0.28571429  0.24074074  1
  Ti  Ti33  1  0.14285714  0.35714286  0.24074074  1
  Ti  Ti34  1  0.14285714  0.42857143  0.24074074  1
  Ti  Ti35  1  0.14285714  0.50000000  0.24074074  1
  Ti  Ti36  1  0.14285714  0.57142857  0.24074074  1
  Ti  Ti37  1  0.14285714  0.64285714  0.24074074  1
  Ti  Ti38  1  0.14285714  0.71428571  0.24074074  1
  Ti  Ti39  1  0.14285714  0.78571429  0.24074074  1
  Ti  Ti40  1  0.14285714  0.85714286  0.24074074  1
  Ti  Ti41  1  0.14285714  0.92857143  0.24074074  1
  Ti  Ti42  1  0.21428571  0.00000000  0.24074074  1
  Ti  Ti43  1  0.21428571  0.07142857  0.24074074  1
  Ti  Ti44  1  0.21428571  0.14285714  0.24074074  1
  Ti  Ti45  1  0.21428571  0.21428571  0.24074074  1
  Ti  Ti46  1  0.21428571  0.28571429  0.24074074  1
  Ti  Ti47  1  0.21428571  0.35714286  0.24074074  1
  Ti  Ti48  1  0.21428571  0.42857143  0.24074074  1
  Ti  Ti49  1  0.21428571  0.50000000  0.24074074  1
  Ti  Ti50  1  0.21428571  0.57142857  0.24074074  1
  Ti  Ti51  1  0.21428571  0.64285714  0.24074074  1
  Ti  Ti52  1  0.21428571  0.71428571  0.24074074  1
  Ti  Ti53  1  0.21428571  0.78571429  0.24074074  1
  Ti  Ti54  1  0.21428571  0.85714286  0.24074074  1
  Ti  Ti55  1  0.21428571  0.92857143  0.24074074  1
  Ti  Ti56  1  0.28571429  0.00000000  0.24074074  1
  Ti  Ti57  1  0.28571429  0.07142857  0.24074074  1
  Ti  Ti58  1  0.28571429  0.14285714  0.24074074  1
  Ti  Ti59  1  0.28571429  0.21428571  0.24074074  1
  Ti  Ti60  1  0.28571429  0.28571429  0.24074074  1
  Ti  Ti61  1  0.28571429  0.35714286  0.24074074  1
  Ti  Ti62  1  0.28571429  0.42857143  0.24074074  1
  Ti  Ti63  1  0.28571429  0.50000000  0.24074074  1
  Ti  Ti64  1  0.28571429  0.57142857  0.24074074  1
  Ti  Ti65  1  0.28571429  0.64285714  0.24074074  1
  Ti  Ti66  1  0.28571429  0.71428571  0.24074074  1
  Ti  Ti67  1  0.28571429  0.78571429  0.24074074  1
  Ti  Ti68  1  0.28571429  0.85714286  0.24074074  1
  Ti  Ti69  1  0.28571429  0.92857143  0.24074074  1
  Ti  Ti70  1  0.35714286  0.00000000  0.24074074  1
  Ti  Ti71  1  0.35714286  0.07142857  0.24074074  1
  Ti  Ti72  1  0.35714286  0.14285714  0.24074074  1
  Ti  Ti73  1  0.35714286  0.21428571  0.24074074  1
  Ti  Ti74  1  0.35714286  0.28571429  0.24074074  1
  Ti  Ti75  1  0.35714286  0.35714286  0.24074074  1
  Ti  Ti76  1  0.35714286  0.42857143  0.24074074  1
  Ti  Ti77  1  0.35714286  0.50000000  0.24074074  1
  Ti  Ti78  1  0.35714286  0.57142857  0.24074074  1
  Ti  Ti79  1  0.35714286  0.64285714  0.24074074  1
  Ti  Ti80  1  0.35714286  0.71428571  0.24074074  1
  Ti  Ti81  1  0.35714286  0.78571429  0.24074074  1
  Ti  Ti82  1  0.35714286  0.85714286  0.24074074  1
  Ti  Ti83  1  0.35714286  0.92857143  0.24074074  1
  Ti  Ti84  1  0.42857143  0.00000000  0.24074074  1
  Ti  Ti85  1  0.42857143  0.07142857  0.24074074  1
  Ti  Ti86  1  0.42857143  0.14285714  0.24074074  1
  Ti  Ti87  1  0.42857143  0.21428571  0.24074074  1
  Ti  Ti88  1  0.42857143  0.28571429  0.24074074  1
  Ti  Ti89  1  0.42857143  0.35714286  0.24074074  1
  Ti  Ti90  1  0.42857143  0.42857143  0.24074074  1
  Ti  Ti91  1  0.42857143  0.50000000  0.24074074  1
  Ti  Ti92  1  0.42857143  0.57142857  0.24074074  1
  Ti  Ti93  1  0.42857143  0.64285714  0.24074074  1
  Ti  Ti94  1  0.42857143  0.71428571  0.24074074  1
  Ti  Ti95  1  0.42857143  0.78571429  0.24074074  1
  Ti  Ti96  1  0.42857143  0.85714286  0.24074074  1
  Ti  Ti97  1  0.42857143  0.92857143  0.24074074  1
  Ti  Ti98  1  0.50000000  0.00000000  0.24074074  1
  Ti  Ti99  1  0.50000000  0.07142857  0.24074074  1
  Ti  Ti100  1  0.50000000  0.14285714  0.24074074  1
  Ti  Ti101  1  0.50000000  0.21428571  0.24074074  1
  Ti  Ti102  1  0.50000000  0.28571429  0.24074074  1
  Ti  Ti103  1  0.50000000  0.35714286  0.24074074  1
  Ti  Ti104  1  0.50000000  0.42857143  0.24074074  1
  Ti  Ti105  1  0.50000000  0.50000000  0.24074074  1
  Ti  Ti106  1  0.50000000  0.57142857  0.24074074  1
  Ti  Ti107  1  0.50000000  0.64285714  0.24074074  1
  Ti  Ti108  1  0.50000000  0.71428571  0.24074074  1
  Ti  Ti109  1  0.50000000  0.78571429  0.24074074  1
  Ti  Ti110  1  0.50000000  0.85714286  0.24074074  1
  Ti  Ti111  1  0.50000000  0.92857143  0.24074074  1
  Ti  Ti112  1  0.57142857  0.00000000  0.24074074  1
  Ti  Ti113  1  0.57142857  0.07142857  0.24074074  1
  Ti  Ti114  1  0.57142857  0.14285714  0.24074074  1
  Ti  Ti115  1  0.57142857  0.21428571  0.24074074  1
  Ti  Ti116  1  0.57142857  0.28571429  0.24074074  1
  Ti  Ti117  1  0.57142857  0.35714286  0.24074074  1
  Ti  Ti118  1  0.57142857  0.42857143  0.24074074  1
  Ti  Ti119  1  0.57142857  0.50000000  0.24074074  1
  Ti  Ti120  1  0.57142857  0.57142857  0.24074074  1
  Ti  Ti121  1  0.57142857  0.64285714  0.24074074  1
  Ti  Ti122  1  0.57142857  0.71428571  0.24074074  1
  Ti  Ti123  1  0.57142857  0.78571429  0.24074074  1
  Ti  Ti124  1  0.57142857  0.85714286  0.24074074  1
  Ti  Ti125  1  0.57142857  0.92857143  0.24074074  1
  Ti  Ti126  1  0.64285714  0.00000000  0.24074074  1
  Ti  Ti127  1  0.64285714  0.07142857  0.24074074  1
  Ti  Ti128  1  0.64285714  0.14285714  0.24074074  1
  Ti  Ti129  1  0.64285714  0.21428571  0.24074074  1
  Ti  Ti130  1  0.64285714  0.28571429  0.24074074  1
  Ti  Ti131  1  0.64285714  0.35714286  0.24074074  1
  Ti  Ti132  1  0.64285714  0.42857143  0.24074074  1
  Ti  Ti133  1  0.64285714  0.50000000  0.24074074  1
  Ti  Ti134  1  0.64285714  0.57142857  0.24074074  1
  Ti  Ti135  1  0.64285714  0.64285714  0.24074074  1
  Ti  Ti136  1  0.64285714  0.71428571  0.24074074  1
  Ti  Ti137  1  0.64285714  0.78571429  0.24074074  1
  Ti  Ti138  1  0.64285714  0.85714286  0.24074074  1
  Ti  Ti139  1  0.64285714  0.92857143  0.24074074  1
  Ti  Ti140  1  0.71428571  0.00000000  0.24074074  1
  Ti  Ti141  1  0.71428571  0.07142857  0.24074074  1
  Ti  Ti142  1  0.71428571  0.14285714  0.24074074  1
  Ti  Ti143  1  0.71428571  0.21428571  0.24074074  1
  Ti  Ti144  1  0.71428571  0.28571429  0.24074074  1
  Ti  Ti145  1  0.71428571  0.35714286  0.24074074  1
  Ti  Ti146  1  0.71428571  0.42857143  0.24074074  1
  Ti  Ti147  1  0.71428571  0.50000000  0.24074074  1
  Ti  Ti148  1  0.71428571  0.57142857  0.24074074  1
  Ti  Ti149  1  0.71428571  0.64285714  0.24074074  1
  Ti  Ti150  1  0.71428571  0.71428571  0.24074074  1
  Ti  Ti151  1  0.71428571  0.78571429  0.24074074  1
  Ti  Ti152  1  0.71428571  0.85714286  0.24074074  1
  Ti  Ti153  1  0.71428571  0.92857143  0.24074074  1
  Ti  Ti154  1  0.78571429  0.00000000  0.24074074  1
  Ti  Ti155  1  0.78571429  0.07142857  0.24074074  1
  Ti  Ti156  1  0.78571429  0.14285714  0.24074074  1
  Ti  Ti157  1  0.78571429  0.21428571  0.24074074  1
  Ti  Ti158  1  0.78571429  0.28571429  0.24074074  1
  Ti  Ti159  1  0.78571429  0.35714286  0.24074074  1
  Ti  Ti160  1  0.78571429  0.42857143  0.24074074  1
  Ti  Ti161  1  0.78571429  0.50000000  0.24074074  1
  Ti  Ti162  1  0.78571429  0.57142857  0.24074074  1
  Ti  Ti163  1  0.78571429  0.64285714  0.24074074  1
  Ti  Ti164  1  0.78571429  0.71428571  0.24074074  1
  Ti  Ti165  1  0.78571429  0.78571429  0.24074074  1
  Ti  Ti166  1  0.78571429  0.85714286  0.24074074  1
  Ti  Ti167  1  0.78571429  0.92857143  0.24074074  1
  Ti  Ti168  1  0.85714286  0.00000000  0.24074074  1
  Ti  Ti169  1  0.85714286  0.07142857  0.24074074  1
  Ti  Ti170  1  0.85714286  0.14285714  0.24074074  1
  Ti  Ti171  1  0.85714286  0.21428571  0.24074074  1
  Ti  Ti172  1  0.85714286  0.28571429  0.24074074  1
  Ti  Ti173  1  0.85714286  0.35714286  0.24074074  1
  Ti  Ti174  1  0.85714286  0.42857143  0.24074074  1
  Ti  Ti175  1  0.85714286  0.50000000  0.24074074  1
  Ti  Ti176  1  0.85714286  0.57142857  0.24074074  1
  Ti  Ti177  1  0.85714286  0.64285714  0.24074074  1
  Ti  Ti178  1  0.85714286  0.71428571  0.24074074  1
  Ti  Ti179  1  0.85714286  0.78571429  0.24074074  1
  Ti  Ti180  1  0.85714286  0.85714286  0.24074074  1
  Ti  Ti181  1  0.85714286  0.92857143  0.24074074  1
  Ti  Ti182  1  0.92857143  0.00000000  0.24074074  1
  Ti  Ti183  1  0.92857143  0.07142857  0.24074074  1
  Ti  Ti184  1  0.92857143  0.14285714  0.24074074  1
  Ti  Ti185  1  0.92857143  0.21428571  0.24074074  1
  Ti  Ti186  1  0.92857143  0.28571429  0.24074074  1
  Ti  Ti187  1  0.92857143  0.35714286  0.24074074  1
  Ti  Ti188  1  0.92857143  0.42857143  0.24074074  1
  Ti  Ti189  1  0.92857143  0.50000000  0.24074074  1
  Ti  Ti190  1  0.92857143  0.57142857  0.24074074  1
  Ti  Ti191  1  0.92857143  0.64285714  0.24074074  1
  Ti  Ti192  1  0.92857143  0.71428571  0.24074074  1
  Ti  Ti193  1  0.92857143  0.78571429  0.24074074  1
  Ti  Ti194  1  0.92857143  0.85714286  0.24074074  1
  Ti  Ti195  1  0.92857143  0.92857143  0.24074074  1
  Ti  Ti196  1  0.02380950  0.04761907  0.22962963  1
  Ti  Ti197  1  0.02380950  0.11904764  0.22962963  1
  Ti  Ti198  1  0.02380950  0.19047621  0.22962963  1
  Ti  Ti199  1  0.02380950  0.26190479  0.22962963  1
  Ti  Ti200  1  0.02380950  0.33333336  0.22962963  1
  Ti  Ti201  1  0.02380950  0.40476193  0.22962963  1
  Ti  Ti202  1  0.02380950  0.47619050  0.22962963  1
  Ti  Ti203  1  0.02380950  0.54761907  0.22962963  1
  Ti  Ti204  1  0.02380950  0.61904764  0.22962963  1
  Ti  Ti205  1  0.02380950  0.69047621  0.22962963  1
  Ti  Ti206  1  0.02380950  0.76190479  0.22962963  1
  Ti  Ti207  1  0.02380950  0.83333336  0.22962963  1
  Ti  Ti208  1  0.02380950  0.90476193  0.22962963  1
  Ti  Ti209  1  0.02380950  0.97619050  0.22962963  1
  Ti  Ti210  1  0.09523807  0.04761907  0.22962963  1
  Ti  Ti211  1  0.09523807  0.11904764  0.22962963  1
  Ti  Ti212  1  0.09523807  0.19047621  0.22962963  1
  Ti  Ti213  1  0.09523807  0.26190479  0.22962963  1
  Ti  Ti214  1  0.09523807  0.33333336  0.22962963  1
  Ti  Ti215  1  0.09523807  0.40476193  0.22962963  1
  Ti  Ti216  1  0.09523807  0.47619050  0.22962963  1
  Ti  Ti217  1  0.09523807  0.54761907  0.22962963  1
  Ti  Ti218  1  0.09523807  0.61904764  0.22962963  1
  Ti  Ti219  1  0.09523807  0.69047621  0.22962963  1
  Ti  Ti220  1  0.09523807  0.76190479  0.22962963  1
  Ti  Ti221  1  0.09523807  0.83333336  0.22962963  1
  Ti  Ti222  1  0.09523807  0.90476193  0.22962963  1
  Ti  Ti223  1  0.09523807  0.97619050  0.22962963  1
  Ti  Ti224  1  0.16666664  0.04761907  0.22962963  1
  Ti  Ti225  1  0.16666664  0.11904764  0.22962963  1
  Ti  Ti226  1  0.16666664  0.19047621  0.22962963  1
  Ti  Ti227  1  0.16666664  0.26190479  0.22962963  1
  Ti  Ti228  1  0.16666664  0.33333336  0.22962963  1
  Ti  Ti229  1  0.16666664  0.40476193  0.22962963  1
  Ti  Ti230  1  0.16666664  0.47619050  0.22962963  1
  Ti  Ti231  1  0.16666664  0.54761907  0.22962963  1
  Ti  Ti232  1  0.16666664  0.61904764  0.22962963  1
  Ti  Ti233  1  0.16666664  0.69047621  0.22962963  1
  Ti  Ti234  1  0.16666664  0.76190479  0.22962963  1
  Ti  Ti235  1  0.16666664  0.83333336  0.22962963  1
  Ti  Ti236  1  0.16666664  0.90476193  0.22962963  1
  Ti  Ti237  1  0.16666664  0.97619050  0.22962963  1
  Ti  Ti238  1  0.23809521  0.04761907  0.22962963  1
  Ti  Ti239  1  0.23809521  0.11904764  0.22962963  1
  Ti  Ti240  1  0.23809521  0.19047621  0.22962963  1
  Ti  Ti241  1  0.23809521  0.26190479  0.22962963  1
  Ti  Ti242  1  0.23809521  0.33333336  0.22962963  1
  Ti  Ti243  1  0.23809521  0.40476193  0.22962963  1
  Ti  Ti244  1  0.23809521  0.47619050  0.22962963  1
  Ti  Ti245  1  0.23809521  0.54761907  0.22962963  1
  Ti  Ti246  1  0.23809521  0.61904764  0.22962963  1
  Ti  Ti247  1  0.23809521  0.69047621  0.22962963  1
  Ti  Ti248  1  0.23809521  0.76190479  0.22962963  1
  Ti  Ti249  1  0.23809521  0.83333336  0.22962963  1
  Ti  Ti250  1  0.23809521  0.90476193  0.22962963  1
  Ti  Ti251  1  0.23809521  0.97619050  0.22962963  1
  Ti  Ti252  1  0.30952379  0.04761907  0.22962963  1
  Ti  Ti253  1  0.30952379  0.11904764  0.22962963  1
  Ti  Ti254  1  0.30952379  0.19047621  0.22962963  1
  Ti  Ti255  1  0.30952379  0.26190479  0.22962963  1
  Ti  Ti256  1  0.30952379  0.33333336  0.22962963  1
  Ti  Ti257  1  0.30952379  0.40476193  0.22962963  1
  Ti  Ti258  1  0.30952379  0.47619050  0.22962963  1
  Ti  Ti259  1  0.30952379  0.54761907  0.22962963  1
  Ti  Ti260  1  0.30952379  0.61904764  0.22962963  1
  Ti  Ti261  1  0.30952379  0.69047621  0.22962963  1
  Ti  Ti262  1  0.30952379  0.76190479  0.22962963  1
  Ti  Ti263  1  0.30952379  0.83333336  0.22962963  1
  Ti  Ti264  1  0.30952379  0.90476193  0.22962963  1
  Ti  Ti265  1  0.30952379  0.97619050  0.22962963  1
  Ti  Ti266  1  0.38095236  0.04761907  0.22962963  1
  Ti  Ti267  1  0.38095236  0.11904764  0.22962963  1
  Ti  Ti268  1  0.38095236  0.19047621  0.22962963  1
  Ti  Ti269  1  0.38095236  0.26190479  0.22962963  1
  Ti  Ti270  1  0.38095236  0.33333336  0.22962963  1
  Ti  Ti271  1  0.38095236  0.40476193  0.22962963  1
  Ti  Ti272  1  0.38095236  0.47619050  0.22962963  1
  Ti  Ti273  1  0.38095236  0.54761907  0.22962963  1
  Ti  Ti274  1  0.38095236  0.61904764  0.22962963  1
  Ti  Ti275  1  0.38095236  0.69047621  0.22962963  1
  Ti  Ti276  1  0.38095236  0.76190479  0.22962963  1
  Ti  Ti277  1  0.38095236  0.83333336  0.22962963  1
  Ti  Ti278  1  0.38095236  0.90476193  0.22962963  1
  Ti  Ti279  1  0.38095236  0.97619050  0.22962963  1
  Ti  Ti280  1  0.45238093  0.04761907  0.22962963  1
  Ti  Ti281  1  0.45238093  0.11904764  0.22962963  1
  Ti  Ti282  1  0.45238093  0.19047621  0.22962963  1
  Ti  Ti283  1  0.45238093  0.26190479  0.22962963  1
  Ti  Ti284  1  0.45238093  0.33333336  0.22962963  1
  Ti  Ti285  1  0.45238093  0.40476193  0.22962963  1
  Ti  Ti286  1  0.45238093  0.47619050  0.22962963  1
  Ti  Ti287  1  0.45238093  0.54761907  0.22962963  1
  Ti  Ti288  1  0.45238093  0.61904764  0.22962963  1
  Ti  Ti289  1  0.45238093  0.69047621  0.22962963  1
  Ti  Ti290  1  0.45238093  0.76190479  0.22962963  1
  Ti  Ti291  1  0.45238093  0.83333336  0.22962963  1
  Ti  Ti292  1  0.45238093  0.90476193  0.22962963  1
  Ti  Ti293  1  0.45238093  0.97619050  0.22962963  1
  Ti  Ti294  1  0.52380950  0.04761907  0.22962963  1
  Ti  Ti295  1  0.52380950  0.11904764  0.22962963  1
  Ti  Ti296  1  0.52380950  0.19047621  0.22962963  1
  Ti  Ti297  1  0.52380950  0.26190479  0.22962963  1
  Ti  Ti298  1  0.52380950  0.33333336  0.22962963  1
  Ti  Ti299  1  0.52380950  0.40476193  0.22962963  1
  Ti  Ti300  1  0.52380950  0.47619050  0.22962963  1
  Ti  Ti301  1  0.52380950  0.54761907  0.22962963  1
  Ti  Ti302  1  0.52380950  0.61904764  0.22962963  1
  Ti  Ti303  1  0.52380950  0.69047621  0.22962963  1
  Ti  Ti304  1  0.52380950  0.76190479  0.22962963  1
  Ti  Ti305  1  0.52380950  0.83333336  0.22962963  1
  Ti  Ti306  1  0.52380950  0.90476193  0.22962963  1
  Ti  Ti307  1  0.52380950  0.97619050  0.22962963  1
  Ti  Ti308  1  0.59523807  0.04761907  0.22962963  1
  Ti  Ti309  1  0.59523807  0.11904764  0.22962963  1
  Ti  Ti310  1  0.59523807  0.19047621  0.22962963  1
  Ti  Ti311  1  0.59523807  0.26190479  0.22962963  1
  Ti  Ti312  1  0.59523807  0.33333336  0.22962963  1
  Ti  Ti313  1  0.59523807  0.40476193  0.22962963  1
  Ti  Ti314  1  0.59523807  0.47619050  0.22962963  1
  Ti  Ti315  1  0.59523807  0.54761907  0.22962963  1
  Ti  Ti316  1  0.59523807  0.61904764  0.22962963  1
  Ti  Ti317  1  0.59523807  0.69047621  0.22962963  1
  Ti  Ti318  1  0.59523807  0.76190479  0.22962963  1
  Ti  Ti319  1  0.59523807  0.83333336  0.22962963  1
  Ti  Ti320  1  0.59523807  0.90476193  0.22962963  1
  Ti  Ti321  1  0.59523807  0.97619050  0.22962963  1
  Ti  Ti322  1  0.66666664  0.04761907  0.22962963  1
  Ti  Ti323  1  0.66666664  0.11904764  0.22962963  1
  Ti  Ti324  1  0.66666664  0.19047621  0.22962963  1
  Ti  Ti325  1  0.66666664  0.26190479  0.22962963  1
  Ti  Ti326  1  0.66666664  0.33333336  0.22962963  1
  Ti  Ti327  1  0.66666664  0.40476193  0.22962963  1
  Ti  Ti328  1  0.66666664  0.47619050  0.22962963  1
  Ti  Ti329  1  0.66666664  0.54761907  0.22962963  1
  Ti  Ti330  1  0.66666664  0.61904764  0.22962963  1
  Ti  Ti331  1  0.66666664  0.69047621  0.22962963  1
  Ti  Ti332  1  0.66666664  0.76190479  0.22962963  1
  Ti  Ti333  1  0.66666664  0.83333336  0.22962963  1
  Ti  Ti334  1  0.66666664  0.90476193  0.22962963  1
  Ti  Ti335  1  0.66666664  0.97619050  0.22962963  1
  Ti  Ti336  1  0.73809521  0.04761907  0.22962963  1
  Ti  Ti337  1  0.73809521  0.11904764  0.22962963  1
  Ti  Ti338  1  0.73809521  0.19047621  0.22962963  1
  Ti  Ti339  1  0.73809521  0.26190479  0.22962963  1
  Ti  Ti340  1  0.73809521  0.33333336  0.22962963  1
  Ti  Ti341  1  0.73809521  0.40476193  0.22962963  1
  Ti  Ti342  1  0.73809521  0.47619050  0.22962963  1
  Ti  Ti343  1  0.73809521  0.54761907  0.22962963  1
  Ti  Ti344  1  0.73809521  0.61904764  0.22962963  1
  Ti  Ti345  1  0.73809521  0.69047621  0.22962963  1
  Ti  Ti346  1  0.73809521  0.76190479  0.22962963  1
  Ti  Ti347  1  0.73809521  0.83333336  0.22962963  1
  Ti  Ti348  1  0.73809521  0.90476193  0.22962963  1
  Ti  Ti349  1  0.73809521  0.97619050  0.22962963  1
  Ti  Ti350  1  0.80952379  0.04761907  0.22962963  1
  Ti  Ti351  1  0.80952379  0.11904764  0.22962963  1
  Ti  Ti352  1  0.80952379  0.19047621  0.22962963  1
  Ti  Ti353  1  0.80952379  0.26190479  0.22962963  1
  Ti  Ti354  1  0.80952379  0.33333336  0.22962963  1
  Ti  Ti355  1  0.80952379  0.40476193  0.22962963  1
  Ti  Ti356  1  0.80952379  0.47619050  0.22962963  1
  Ti  Ti357  1  0.80952379  0.54761907  0.22962963  1
  Ti  Ti358  1  0.80952379  0.61904764  0.22962963  1
  Ti  Ti359  1  0.80952379  0.69047621  0.22962963  1
  Ti  Ti360  1  0.80952379  0.76190479  0.22962963  1
  Ti  Ti361  1  0.80952379  0.83333336  0.22962963  1
  Ti  Ti362  1  0.80952379  0.90476193  0.22962963  1
  Ti  Ti363  1  0.80952379  0.97619050  0.22962963  1
  Ti  Ti364  1  0.88095236  0.04761907  0.22962963  1
  Ti  Ti365  1  0.88095236  0.11904764  0.22962963  1
  Ti  Ti366  1  0.88095236  0.19047621  0.22962963  1
  Ti  Ti367  1  0.88095236  0.26190479  0.22962963  1
  Ti  Ti368  1  0.88095236  0.33333336  0.22962963  1
  Ti  Ti369  1  0.88095236  0.40476193  0.22962963  1
  Ti  Ti370  1  0.88095236  0.47619050  0.22962963  1
  Ti  Ti371  1  0.88095236  0.54761907  0.22962963  1
  Ti  Ti372  1  0.88095236  0.61904764  0.22962963  1
  Ti  Ti373  1  0.88095236  0.69047621  0.22962963  1
  Ti  Ti374  1  0.88095236  0.76190479  0.22962963  1
  Ti  Ti375  1  0.88095236  0.83333336  0.22962963  1
  Ti  Ti376  1  0.88095236  0.90476193  0.22962963  1
  Ti  Ti377  1  0.88095236  0.97619050  0.22962963  1
  Ti  Ti378  1  0.95238093  0.04761907  0.22962963  1
  Ti  Ti379  1  0.95238093  0.11904764  0.22962963  1
  Ti  Ti380  1  0.95238093  0.19047621  0.22962963  1
  Ti  Ti381  1  0.95238093  0.26190479  0.22962963  1
  Ti  Ti382  1  0.95238093  0.33333336  0.22962963  1
  Ti  Ti383  1  0.95238093  0.40476193  0.22962963  1
  Ti  Ti384  1  0.95238093  0.47619050  0.22962963  1
  Ti  Ti385  1  0.95238093  0.54761907  0.22962963  1
  Ti  Ti386  1  0.95238093  0.61904764  0.22962963  1
  Ti  Ti387  1  0.95238093  0.69047621  0.22962963  1
  Ti  Ti388  1  0.95238093  0.76190479  0.22962963  1
  Ti  Ti389  1  0.95238093  0.83333336  0.22962963  1
  Ti  Ti390  1  0.95238093  0.90476193  0.22962963  1
  Ti  Ti391  1  0.95238093  0.97619050  0.22962963  1
  Ti  Ti392  1  0.04761907  0.02380950  0.22962963  1
  Ti  Ti393  1  0.04761907  0.09523807  0.22962963  1
  Ti  Ti394  1  0.04761907  0.16666664  0.22962963  1
  Ti  Ti395  1  0.04761907  0.23809521  0.22962963  1
  Ti  Ti396  1  0.04761907  0.30952379  0.22962963  1
  Ti  Ti397  1  0.04761907  0.38095236  0.22962963  1
  Ti  Ti398  1  0.04761907  0.45238093  0.22962963  1
  Ti  Ti399  1  0.04761907  0.52380950  0.22962963  1
  Ti  Ti400  1  0.04761907  0.59523807  0.22962963  1
  Ti  Ti401  1  0.04761907  0.66666664  0.22962963  1
  Ti  Ti402  1  0.04761907  0.73809521  0.22962963  1
  Ti  Ti403  1  0.04761907  0.80952379  0.22962963  1
  Ti  Ti404  1  0.04761907  0.88095236  0.22962963  1
  Ti  Ti405  1  0.04761907  0.95238093  0.22962963  1
  Ti  Ti406  1  0.11904764  0.02380950  0.22962963  1
  Ti  Ti407  1  0.11904764  0.09523807  0.22962963  1
  Ti  Ti408  1  0.11904764  0.16666664  0.22962963  1
  Ti  Ti409  1  0.11904764  0.23809521  0.22962963  1
  Ti  Ti410  1  0.11904764  0.30952379  0.22962963  1
  Ti  Ti411  1  0.11904764  0.38095236  0.22962963  1
  Ti  Ti412  1  0.11904764  0.45238093  0.22962963  1
  Ti  Ti413  1  0.11904764  0.52380950  0.22962963  1
  Ti  Ti414  1  0.11904764  0.59523807  0.22962963  1
  Ti  Ti415  1  0.11904764  0.66666664  0.22962963  1
  Ti  Ti416  1  0.11904764  0.73809521  0.22962963  1
  Ti  Ti417  1  0.11904764  0.80952379  0.22962963  1
  Ti  Ti418  1  0.11904764  0.88095236  0.22962963  1
  Ti  Ti419  1  0.11904764  0.95238093  0.22962963  1
  Ti  Ti420  1  0.19047621  0.02380950  0.22962963  1
  Ti  Ti421  1  0.19047621  0.09523807  0.22962963  1
  Ti  Ti422  1  0.19047621  0.16666664  0.22962963  1
  Ti  Ti423  1  0.19047621  0.23809521  0.22962963  1
  Ti  Ti424  1  0.19047621  0.30952379  0.22962963  1
  Ti  Ti425  1  0.19047621  0.38095236  0.22962963  1
  Ti  Ti426  1  0.19047621  0.45238093  0.22962963  1
  Ti  Ti427  1  0.19047621  0.52380950  0.22962963  1
  Ti  Ti428  1  0.19047621  0.59523807  0.22962963  1
  Ti  Ti429  1  0.19047621  0.66666664  0.22962963  1
  Ti  Ti430  1  0.19047621  0.73809521  0.22962963  1
  Ti  Ti431  1  0.19047621  0.80952379  0.22962963  1
  Ti  Ti432  1  0.19047621  0.88095236  0.22962963  1
  Ti  Ti433  1  0.19047621  0.95238093  0.22962963  1
  Ti  Ti434  1  0.26190479  0.02380950  0.22962963  1
  Ti  Ti435  1  0.26190479  0.09523807  0.22962963  1
  Ti  Ti436  1  0.26190479  0.16666664  0.22962963  1
  Ti  Ti437  1  0.26190479  0.23809521  0.22962963  1
  Ti  Ti438  1  0.26190479  0.30952379  0.22962963  1
  Ti  Ti439  1  0.26190479  0.38095236  0.22962963  1
  Ti  Ti440  1  0.26190479  0.45238093  0.22962963  1
  Ti  Ti441  1  0.26190479  0.52380950  0.22962963  1
  Ti  Ti442  1  0.26190479  0.59523807  0.22962963  1
  Ti  Ti443  1  0.26190479  0.66666664  0.22962963  1
  Ti  Ti444  1  0.26190479  0.73809521  0.22962963  1
  Ti  Ti445  1  0.26190479  0.80952379  0.22962963  1
  Ti  Ti446  1  0.26190479  0.88095236  0.22962963  1
  Ti  Ti447  1  0.26190479  0.95238093  0.22962963  1
  Ti  Ti448  1  0.33333336  0.02380950  0.22962963  1
  Ti  Ti449  1  0.33333336  0.09523807  0.22962963  1
  Ti  Ti450  1  0.33333336  0.16666664  0.22962963  1
  Ti  Ti451  1  0.33333336  0.23809521  0.22962963  1
  Ti  Ti452  1  0.33333336  0.30952379  0.22962963  1
  Ti  Ti453  1  0.33333336  0.38095236  0.22962963  1
  Ti  Ti454  1  0.33333336  0.45238093  0.22962963  1
  Ti  Ti455  1  0.33333336  0.52380950  0.22962963  1
  Ti  Ti456  1  0.33333336  0.59523807  0.22962963  1
  Ti  Ti457  1  0.33333336  0.66666664  0.22962963  1
  Ti  Ti458  1  0.33333336  0.73809521  0.22962963  1
  Ti  Ti459  1  0.33333336  0.80952379  0.22962963  1
  Ti  Ti460  1  0.33333336  0.88095236  0.22962963  1
  Ti  Ti461  1  0.33333336  0.95238093  0.22962963  1
  Ti  Ti462  1  0.40476193  0.02380950  0.22962963  1
  Ti  Ti463  1  0.40476193  0.09523807  0.22962963  1
  Ti  Ti464  1  0.40476193  0.16666664  0.22962963  1
  Ti  Ti465  1  0.40476193  0.23809521  0.22962963  1
  Ti  Ti466  1  0.40476193  0.30952379  0.22962963  1
  Ti  Ti467  1  0.40476193  0.38095236  0.22962963  1
  Ti  Ti468  1  0.40476193  0.45238093  0.22962963  1
  Ti  Ti469  1  0.40476193  0.52380950  0.22962963  1
  Ti  Ti470  1  0.40476193  0.59523807  0.22962963  1
  Ti  Ti471  1  0.40476193  0.66666664  0.22962963  1
  Ti  Ti472  1  0.40476193  0.73809521  0.22962963  1
  Ti  Ti473  1  0.40476193  0.80952379  0.22962963  1
  Ti  Ti474  1  0.40476193  0.88095236  0.22962963  1
  Ti  Ti475  1  0.40476193  0.95238093  0.22962963  1
  Ti  Ti476  1  0.47619050  0.02380950  0.22962963  1
  Ti  Ti477  1  0.47619050  0.09523807  0.22962963  1
  Ti  Ti478  1  0.47619050  0.16666664  0.22962963  1
  Ti  Ti479  1  0.47619050  0.23809521  0.22962963  1
  Ti  Ti480  1  0.47619050  0.30952379  0.22962963  1
  Ti  Ti481  1  0.47619050  0.38095236  0.22962963  1
  Ti  Ti482  1  0.47619050  0.45238093  0.22962963  1
  Ti  Ti483  1  0.47619050  0.52380950  0.22962963  1
  Ti  Ti484  1  0.47619050  0.59523807  0.22962963  1
  Ti  Ti485  1  0.47619050  0.66666664  0.22962963  1
  Ti  Ti486  1  0.47619050  0.73809521  0.22962963  1
  Ti  Ti487  1  0.47619050  0.80952379  0.22962963  1
  Ti  Ti488  1  0.47619050  0.88095236  0.22962963  1
  Ti  Ti489  1  0.47619050  0.95238093  0.22962963  1
  Ti  Ti490  1  0.54761907  0.02380950  0.22962963  1
  Ti  Ti491  1  0.54761907  0.09523807  0.22962963  1
  Ti  Ti492  1  0.54761907  0.16666664  0.22962963  1
  Ti  Ti493  1  0.54761907  0.23809521  0.22962963  1
  Ti  Ti494  1  0.54761907  0.30952379  0.22962963  1
  Ti  Ti495  1  0.54761907  0.38095236  0.22962963  1
  Ti  Ti496  1  0.54761907  0.45238093  0.22962963  1
  Ti  Ti497  1  0.54761907  0.52380950  0.22962963  1
  Ti  Ti498  1  0.54761907  0.59523807  0.22962963  1
  Ti  Ti499  1  0.54761907  0.66666664  0.22962963  1
  Ti  Ti500  1  0.54761907  0.73809521  0.22962963  1
  Ti  Ti501  1  0.54761907  0.80952379  0.22962963  1
  Ti  Ti502  1  0.54761907  0.88095236  0.22962963  1
  Ti  Ti503  1  0.54761907  0.95238093  0.22962963  1
  Ti  Ti504  1  0.61904764  0.02380950  0.22962963  1
  Ti  Ti505  1  0.61904764  0.09523807  0.22962963  1
  Ti  Ti506  1  0.61904764  0.16666664  0.22962963  1
  Ti  Ti507  1  0.61904764  0.23809521  0.22962963  1
  Ti  Ti508  1  0.61904764  0.30952379  0.22962963  1
  Ti  Ti509  1  0.61904764  0.38095236  0.22962963  1
  Ti  Ti510  1  0.61904764  0.45238093  0.22962963  1
  Ti  Ti511  1  0.61904764  0.52380950  0.22962963  1
  Ti  Ti512  1  0.61904764  0.59523807  0.22962963  1
  Ti  Ti513  1  0.61904764  0.66666664  0.22962963  1
  Ti  Ti514  1  0.61904764  0.73809521  0.22962963  1
  Ti  Ti515  1  0.61904764  0.80952379  0.22962963  1
  Ti  Ti516  1  0.61904764  0.88095236  0.22962963  1
  Ti  Ti517  1  0.61904764  0.95238093  0.22962963  1
  Ti  Ti518  1  0.69047621  0.02380950  0.22962963  1
  Ti  Ti519  1  0.69047621  0.09523807  0.22962963  1
  Ti  Ti520  1  0.69047621  0.16666664  0.22962963  1
  Ti  Ti521  1  0.69047621  0.23809521  0.22962963  1
  Ti  Ti522  1  0.69047621  0.30952379  0.22962963  1
  Ti  Ti523  1  0.69047621  0.38095236  0.22962963  1
  Ti  Ti524  1  0.69047621  0.45238093  0.22962963  1
  Ti  Ti525  1  0.69047621  0.52380950  0.22962963  1
  Ti  Ti526  1  0.69047621  0.59523807  0.22962963  1
  Ti  Ti527  1  0.69047621  0.66666664  0.22962963  1
  Ti  Ti528  1  0.69047621  0.73809521  0.22962963  1
  Ti  Ti529  1  0.69047621  0.80952379  0.22962963  1
  Ti  Ti530  1  0.69047621  0.88095236  0.22962963  1
  Ti  Ti531  1  0.69047621  0.95238093  0.22962963  1
  Ti  Ti532  1  0.76190479  0.02380950  0.22962963  1
  Ti  Ti533  1  0.76190479  0.09523807  0.22962963  1
  Ti  Ti534  1  0.76190479  0.16666664  0.22962963  1
  Ti  Ti535  1  0.76190479  0.23809521  0.22962963  1
  Ti  Ti536  1  0.76190479  0.30952379  0.22962963  1
  Ti  Ti537  1  0.76190479  0.38095236  0.22962963  1
  Ti  Ti538  1  0.76190479  0.45238093  0.22962963  1
  Ti  Ti539  1  0.76190479  0.52380950  0.22962963  1
  Ti  Ti540  1  0.76190479  0.59523807  0.22962963  1
  Ti  Ti541  1  0.76190479  0.66666664  0.22962963  1
  Ti  Ti542  1  0.76190479  0.73809521  0.22962963  1
  Ti  Ti543  1  0.76190479  0.80952379  0.22962963  1
  Ti  Ti544  1  0.76190479  0.88095236  0.22962963  1
  Ti  Ti545  1  0.76190479  0.95238093  0.22962963  1
  Ti  Ti546  1  0.83333336  0.02380950  0.22962963  1
  Ti  Ti547  1  0.83333336  0.09523807  0.22962963  1
  Ti  Ti548  1  0.83333336  0.16666664  0.22962963  1
  Ti  Ti549  1  0.83333336  0.23809521  0.22962963  1
  Ti  Ti550  1  0.83333336  0.30952379  0.22962963  1
  Ti  Ti551  1  0.83333336  0.38095236  0.22962963  1
  Ti  Ti552  1  0.83333336  0.45238093  0.22962963  1
  Ti  Ti553  1  0.83333336  0.52380950  0.22962963  1
  Ti  Ti554  1  0.83333336  0.59523807  0.22962963  1
  Ti  Ti555  1  0.83333336  0.66666664  0.22962963  1
  Ti  Ti556  1  0.83333336  0.73809521  0.22962963  1
  Ti  Ti557  1  0.83333336  0.80952379  0.22962963  1
  Ti  Ti558  1  0.83333336  0.88095236  0.22962963  1
  Ti  Ti559  1  0.83333336  0.95238093  0.22962963  1
  Ti  Ti560  1  0.90476193  0.02380950  0.22962963  1
  Ti  Ti561  1  0.90476193  0.09523807  0.22962963  1
  Ti  Ti562  1  0.90476193  0.16666664  0.22962963  1
  Ti  Ti563  1  0.90476193  0.23809521  0.22962963  1
  Ti  Ti564  1  0.90476193  0.30952379  0.22962963  1
  Ti  Ti565  1  0.90476193  0.38095236  0.22962963  1
  Ti  Ti566  1  0.90476193  0.45238093  0.22962963  1
  Ti  Ti567  1  0.90476193  0.52380950  0.22962963  1
  Ti  Ti568  1  0.90476193  0.59523807  0.22962963  1
  Ti  Ti569  1  0.90476193  0.66666664  0.22962963  1
  Ti  Ti570  1  0.90476193  0.73809521  0.22962963  1
  Ti  Ti571  1  0.90476193  0.80952379  0.22962963  1
  Ti  Ti572  1  0.90476193  0.88095236  0.22962963  1
  Ti  Ti573  1  0.90476193  0.95238093  0.22962963  1
  Ti  Ti574  1  0.97619050  0.02380950  0.22962963  1
  Ti  Ti575  1  0.97619050  0.09523807  0.22962963  1
  Ti  Ti576  1  0.97619050  0.16666664  0.22962963  1
  Ti  Ti577  1  0.97619050  0.23809521  0.22962963  1
  Ti  Ti578  1  0.97619050  0.30952379  0.22962963  1
  Ti  Ti579  1  0.97619050  0.38095236  0.22962963  1
  Ti  Ti580  1  0.97619050  0.45238093  0.22962963  1
  Ti  Ti581  1  0.97619050  0.52380950  0.22962963  1
  Ti  Ti582  1  0.97619050  0.59523807  0.22962963  1
  Ti  Ti583  1  0.97619050  0.66666664  0.22962963  1
  Ti  Ti584  1  0.97619050  0.73809521  0.22962963  1
  Ti  Ti585  1  0.97619050  0.80952379  0.22962963  1
  Ti  Ti586  1  0.97619050  0.88095236  0.22962963  1
  Ti  Ti587  1  0.97619050  0.95238093  0.22962963  1
  Ti  Ti588  1  0.00000000  0.00000000  0.26296296  1
  Ti  Ti589  1  0.00000000  0.07142857  0.26296296  1
  Ti  Ti590  1  0.00000000  0.14285714  0.26296296  1
  Ti  Ti591  1  0.00000000  0.21428571  0.26296296  1
  Ti  Ti592  1  0.00000000  0.28571429  0.26296296  1
  Ti  Ti593  1  0.00000000  0.35714286  0.26296296  1
  Ti  Ti594  1  0.00000000  0.42857143  0.26296296  1
  Ti  Ti595  1  0.00000000  0.50000000  0.26296296  1
  Ti  Ti596  1  0.00000000  0.57142857  0.26296296  1
  Ti  Ti597  1  0.00000000  0.64285714  0.26296296  1
  Ti  Ti598  1  0.00000000  0.71428571  0.26296296  1
  Ti  Ti599  1  1.00000000  0.78571429  0.26296296  1
  Ti  Ti600  1  0.00000000  0.85714286  0.26296296  1
  Ti  Ti601  1  0.00000000  0.92857143  0.26296296  1
  Ti  Ti602  1  0.07142857  0.00000000  0.26296296  1
  Ti  Ti603  1  0.07142857  0.07142857  0.26296296  1
  Ti  Ti604  1  0.07142857  0.14285714  0.26296296  1
  Ti  Ti605  1  0.07142857  0.21428571  0.26296296  1
  Ti  Ti606  1  0.07142857  0.28571429  0.26296296  1
  Ti  Ti607  1  0.07142857  0.35714286  0.26296296  1
  Ti  Ti608  1  0.07142857  0.42857143  0.26296296  1
  Ti  Ti609  1  0.07142857  0.50000000  0.26296296  1
  Ti  Ti610  1  0.07142857  0.57142857  0.26296296  1
  Ti  Ti611  1  0.07142857  0.64285714  0.26296296  1
  Ti  Ti612  1  0.07142857  0.71428571  0.26296296  1
  Ti  Ti613  1  0.07142857  0.78571429  0.26296296  1
  Ti  Ti614  1  0.07142857  0.85714286  0.26296296  1
  Ti  Ti615  1  0.07142857  0.92857143  0.26296296  1
  Ti  Ti616  1  0.14285714  0.00000000  0.26296296  1
  Ti  Ti617  1  0.14285714  0.07142857  0.26296296  1
  Ti  Ti618  1  0.14285714  0.14285714  0.26296296  1
  Ti  Ti619  1  0.14285714  0.21428571  0.26296296  1
  Ti  Ti620  1  0.14285714  0.28571429  0.26296296  1
  Ti  Ti621  1  0.14285714  0.35714286  0.26296296  1
  Ti  Ti622  1  0.14285714  0.42857143  0.26296296  1
  Ti  Ti623  1  0.14285714  0.50000000  0.26296296  1
  Ti  Ti624  1  0.14285714  0.57142857  0.26296296  1
  Ti  Ti625  1  0.14285714  0.64285714  0.26296296  1
  Ti  Ti626  1  0.14285714  0.71428571  0.26296296  1
  Ti  Ti627  1  0.14285714  0.78571429  0.26296296  1
  Ti  Ti628  1  0.14285714  0.85714286  0.26296296  1
  Ti  Ti629  1  0.14285714  0.92857143  0.26296296  1
  Ti  Ti630  1  0.21428571  0.00000000  0.26296296  1
  Ti  Ti631  1  0.21428571  0.07142857  0.26296296  1
  Ti  Ti632  1  0.21428571  0.14285714  0.26296296  1
  Ti  Ti633  1  0.21428571  0.21428571  0.26296296  1
  Ti  Ti634  1  0.21428571  0.28571429  0.26296296  1
  Ti  Ti635  1  0.21428571  0.35714286  0.26296296  1
  Ti  Ti636  1  0.21428571  0.42857143  0.26296296  1
  Ti  Ti637  1  0.21428571  0.50000000  0.26296296  1
  Ti  Ti638  1  0.21428571  0.57142857  0.26296296  1
  Ti  Ti639  1  0.21428571  0.64285714  0.26296296  1
  Ti  Ti640  1  0.21428571  0.71428571  0.26296296  1
  Ti  Ti641  1  0.21428571  0.78571429  0.26296296  1
  Ti  Ti642  1  0.21428571  0.85714286  0.26296296  1
  Ti  Ti643  1  0.21428571  0.92857143  0.26296296  1
  Ti  Ti644  1  0.28571429  0.00000000  0.26296296  1
  Ti  Ti645  1  0.28571429  0.07142857  0.26296296  1
  Ti  Ti646  1  0.28571429  0.14285714  0.26296296  1
  Ti  Ti647  1  0.28571429  0.21428571  0.26296296  1
  Ti  Ti648  1  0.28571429  0.28571429  0.26296296  1
  Ti  Ti649  1  0.28571429  0.35714286  0.26296296  1
  Ti  Ti650  1  0.28571429  0.42857143  0.26296296  1
  Ti  Ti651  1  0.28571429  0.50000000  0.26296296  1
  Ti  Ti652  1  0.28571429  0.57142857  0.26296296  1
  Ti  Ti653  1  0.28571429  0.64285714  0.26296296  1
  Ti  Ti654  1  0.28571429  0.71428571  0.26296296  1
  Ti  Ti655  1  0.28571429  0.78571429  0.26296296  1
  Ti  Ti656  1  0.28571429  0.85714286  0.26296296  1
  Ti  Ti657  1  0.28571429  0.92857143  0.26296296  1
  Ti  Ti658  1  0.35714286  0.00000000  0.26296296  1
  Ti  Ti659  1  0.35714286  0.07142857  0.26296296  1
  Ti  Ti660  1  0.35714286  0.14285714  0.26296296  1
  Ti  Ti661  1  0.35714286  0.21428571  0.26296296  1
  Ti  Ti662  1  0.35714286  0.28571429  0.26296296  1
  Ti  Ti663  1  0.35714286  0.35714286  0.26296296  1
  Ti  Ti664  1  0.35714286  0.42857143  0.26296296  1
  Ti  Ti665  1  0.35714286  0.50000000  0.26296296  1
  Ti  Ti666  1  0.35714286  0.57142857  0.26296296  1
  Ti  Ti667  1  0.35714286  0.64285714  0.26296296  1
  Ti  Ti668  1  0.35714286  0.71428571  0.26296296  1
  Ti  Ti669  1  0.35714286  0.78571429  0.26296296  1
  Ti  Ti670  1  0.35714286  0.85714286  0.26296296  1
  Ti  Ti671  1  0.35714286  0.92857143  0.26296296  1
  Ti  Ti672  1  0.42857143  0.00000000  0.26296296  1
  Ti  Ti673  1  0.42857143  0.07142857  0.26296296  1
  Ti  Ti674  1  0.42857143  0.14285714  0.26296296  1
  Ti  Ti675  1  0.42857143  0.21428571  0.26296296  1
  Ti  Ti676  1  0.42857143  0.28571429  0.26296296  1
  Ti  Ti677  1  0.42857143  0.35714286  0.26296296  1
  Ti  Ti678  1  0.42857143  0.42857143  0.26296296  1
  Ti  Ti679  1  0.42857143  0.50000000  0.26296296  1
  Ti  Ti680  1  0.42857143  0.57142857  0.26296296  1
  Ti  Ti681  1  0.42857143  0.64285714  0.26296296  1
  Ti  Ti682  1  0.42857143  0.71428571  0.26296296  1
  Ti  Ti683  1  0.42857143  0.78571429  0.26296296  1
  Ti  Ti684  1  0.42857143  0.85714286  0.26296296  1
  Ti  Ti685  1  0.42857143  0.92857143  0.26296296  1
  Ti  Ti686  1  0.50000000  0.00000000  0.26296296  1
  Ti  Ti687  1  0.50000000  0.07142857  0.26296296  1
  Ti  Ti688  1  0.50000000  0.14285714  0.26296296  1
  Ti  Ti689  1  0.50000000  0.21428571  0.26296296  1
  Ti  Ti690  1  0.50000000  0.28571429  0.26296296  1
  Ti  Ti691  1  0.50000000  0.35714286  0.26296296  1
  Ti  Ti692  1  0.50000000  0.42857143  0.26296296  1
  Ti  Ti693  1  0.50000000  0.50000000  0.26296296  1
  Ti  Ti694  1  0.50000000  0.57142857  0.26296296  1
  Ti  Ti695  1  0.50000000  0.64285714  0.26296296  1
  Ti  Ti696  1  0.50000000  0.71428571  0.26296296  1
  Ti  Ti697  1  0.50000000  0.78571429  0.26296296  1
  Ti  Ti698  1  0.50000000  0.85714286  0.26296296  1
  Ti  Ti699  1  0.50000000  0.92857143  0.26296296  1
  Ti  Ti700  1  0.57142857  0.00000000  0.26296296  1
  Ti  Ti701  1  0.57142857  0.07142857  0.26296296  1
  Ti  Ti702  1  0.57142857  0.14285714  0.26296296  1
  Ti  Ti703  1  0.57142857  0.21428571  0.26296296  1
  Ti  Ti704  1  0.57142857  0.28571429  0.26296296  1
  Ti  Ti705  1  0.57142857  0.35714286  0.26296296  1
  Ti  Ti706  1  0.57142857  0.42857143  0.26296296  1
  Ti  Ti707  1  0.57142857  0.50000000  0.26296296  1
  Ti  Ti708  1  0.57142857  0.57142857  0.26296296  1
  Ti  Ti709  1  0.57142857  0.64285714  0.26296296  1
  Ti  Ti710  1  0.57142857  0.71428571  0.26296296  1
  Ti  Ti711  1  0.57142857  0.78571429  0.26296296  1
  Ti  Ti712  1  0.57142857  0.85714286  0.26296296  1
  Ti  Ti713  1  0.57142857  0.92857143  0.26296296  1
  Ti  Ti714  1  0.64285714  0.00000000  0.26296296  1
  Ti  Ti715  1  0.64285714  0.07142857  0.26296296  1
  Ti  Ti716  1  0.64285714  0.14285714  0.26296296  1
  Ti  Ti717  1  0.64285714  0.21428571  0.26296296  1
  Ti  Ti718  1  0.64285714  0.28571429  0.26296296  1
  Ti  Ti719  1  0.64285714  0.35714286  0.26296296  1
  Ti  Ti720  1  0.64285714  0.42857143  0.26296296  1
  Ti  Ti721  1  0.64285714  0.50000000  0.26296296  1
  Ti  Ti722  1  0.64285714  0.57142857  0.26296296  1
  Ti  Ti723  1  0.64285714  0.64285714  0.26296296  1
  Ti  Ti724  1  0.64285714  0.71428571  0.26296296  1
  Ti  Ti725  1  0.64285714  0.78571429  0.26296296  1
  Ti  Ti726  1  0.64285714  0.85714286  0.26296296  1
  Ti  Ti727  1  0.64285714  0.92857143  0.26296296  1
  Ti  Ti728  1  0.71428571  0.00000000  0.26296296  1
  Ti  Ti729  1  0.71428571  0.07142857  0.26296296  1
  Ti  Ti730  1  0.71428571  0.14285714  0.26296296  1
  Ti  Ti731  1  0.71428571  0.21428571  0.26296296  1
  Ti  Ti732  1  0.71428571  0.28571429  0.26296296  1
  Ti  Ti733  1  0.71428571  0.35714286  0.26296296  1
  Ti  Ti734  1  0.71428571  0.42857143  0.26296296  1
  Ti  Ti735  1  0.71428571  0.50000000  0.26296296  1
  Ti  Ti736  1  0.71428571  0.57142857  0.26296296  1
  Ti  Ti737  1  0.71428571  0.64285714  0.26296296  1
  Ti  Ti738  1  0.71428571  0.71428571  0.26296296  1
  Ti  Ti739  1  0.71428571  0.78571429  0.26296296  1
  Ti  Ti740  1  0.71428571  0.85714286  0.26296296  1
  Ti  Ti741  1  0.71428571  0.92857143  0.26296296  1
  Ti  Ti742  1  0.78571429  0.00000000  0.26296296  1
  Ti  Ti743  1  0.78571429  0.07142857  0.26296296  1
  Ti  Ti744  1  0.78571429  0.14285714  0.26296296  1
  Ti  Ti745  1  0.78571429  0.21428571  0.26296296  1
  Ti  Ti746  1  0.78571429  0.28571429  0.26296296  1
  Ti  Ti747  1  0.78571429  0.35714286  0.26296296  1
  Ti  Ti748  1  0.78571429  0.42857143  0.26296296  1
  Ti  Ti749  1  0.78571429  0.50000000  0.26296296  1
  Ti  Ti750  1  0.78571429  0.57142857  0.26296296  1
  Ti  Ti751  1  0.78571429  0.64285714  0.26296296  1
  Ti  Ti752  1  0.78571429  0.71428571  0.26296296  1
  Ti  Ti753  1  0.78571429  0.78571429  0.26296296  1
  Ti  Ti754  1  0.78571429  0.85714286  0.26296296  1
  Ti  Ti755  1  0.78571429  0.92857143  0.26296296  1
  Ti  Ti756  1  0.85714286  0.00000000  0.26296296  1
  Ti  Ti757  1  0.85714286  0.07142857  0.26296296  1
  Ti  Ti758  1  0.85714286  0.14285714  0.26296296  1
  Ti  Ti759  1  0.85714286  0.21428571  0.26296296  1
  Ti  Ti760  1  0.85714286  0.28571429  0.26296296  1
  Ti  Ti761  1  0.85714286  0.35714286  0.26296296  1
  Ti  Ti762  1  0.85714286  0.42857143  0.26296296  1
  Ti  Ti763  1  0.85714286  0.50000000  0.26296296  1
  Ti  Ti764  1  0.85714286  0.57142857  0.26296296  1
  Ti  Ti765  1  0.85714286  0.64285714  0.26296296  1
  Ti  Ti766  1  0.85714286  0.71428571  0.26296296  1
  Ti  Ti767  1  0.85714286  0.78571429  0.26296296  1
  Ti  Ti768  1  0.85714286  0.85714286  0.26296296  1
  Ti  Ti769  1  0.85714286  0.92857143  0.26296296  1
  Ti  Ti770  1  0.92857143  0.00000000  0.26296296  1
  Ti  Ti771  1  0.92857143  0.07142857  0.26296296  1
  Ti  Ti772  1  0.92857143  0.14285714  0.26296296  1
  Ti  Ti773  1  0.92857143  0.21428571  0.26296296  1
  Ti  Ti774  1  0.92857143  0.28571429  0.26296296  1
  Ti  Ti775  1  0.92857143  0.35714286  0.26296296  1
  Ti  Ti776  1  0.92857143  0.42857143  0.26296296  1
  Ti  Ti777  1  0.92857143  0.50000000  0.26296296  1
  Ti  Ti778  1  0.92857143  0.57142857  0.26296296  1
  Ti  Ti779  1  0.92857143  0.64285714  0.26296296  1
  Ti  Ti780  1  0.92857143  0.71428571  0.26296296  1
  Ti  Ti781  1  0.92857143  0.78571429  0.26296296  1
  Ti  Ti782  1  0.92857143  0.85714286  0.26296296  1
  Ti  Ti783  1  0.92857143  0.92857143  0.26296296  1
  Ti  Ti784  1  0.02380950  0.04761907  0.25185185  1
  Ti  Ti785  1  0.02380950  0.11904764  0.25185185  1
  Ti  Ti786  1  0.02380950  0.19047621  0.25185185  1
  Ti  Ti787  1  0.02380950  0.26190479  0.25185185  1
  Ti  Ti788  1  0.02380950  0.33333336  0.25185185  1
  Ti  Ti789  1  0.02380950  0.40476193  0.25185185  1
  Ti  Ti790  1  0.02380950  0.47619050  0.25185185  1
  Ti  Ti791  1  0.02380950  0.54761907  0.25185185  1
  Ti  Ti792  1  0.02380950  0.61904764  0.25185185  1
  Ti  Ti793  1  0.02380950  0.69047621  0.25185185  1
  Ti  Ti794  1  0.02380950  0.76190479  0.25185185  1
  Ti  Ti795  1  0.02380950  0.83333336  0.25185185  1
  Ti  Ti796  1  0.02380950  0.90476193  0.25185185  1
  Ti  Ti797  1  0.02380950  0.97619050  0.25185185  1
  Ti  Ti798  1  0.09523807  0.04761907  0.25185185  1
  Ti  Ti799  1  0.09523807  0.11904764  0.25185185  1
  Ti  Ti800  1  0.09523807  0.19047621  0.25185185  1
  Ti  Ti801  1  0.09523807  0.26190479  0.25185185  1
  Ti  Ti802  1  0.09523807  0.33333336  0.25185185  1
  Ti  Ti803  1  0.09523807  0.40476193  0.25185185  1
  Ti  Ti804  1  0.09523807  0.47619050  0.25185185  1
  Ti  Ti805  1  0.09523807  0.54761907  0.25185185  1
  Ti  Ti806  1  0.09523807  0.61904764  0.25185185  1
  Ti  Ti807  1  0.09523807  0.69047621  0.25185185  1
  Ti  Ti808  1  0.09523807  0.76190479  0.25185185  1
  Ti  Ti809  1  0.09523807  0.83333336  0.25185185  1
  Ti  Ti810  1  0.09523807  0.90476193  0.25185185  1
  Ti  Ti811  1  0.09523807  0.97619050  0.25185185  1
  Ti  Ti812  1  0.16666664  0.04761907  0.25185185  1
  Ti  Ti813  1  0.16666664  0.11904764  0.25185185  1
  Ti  Ti814  1  0.16666664  0.19047621  0.25185185  1
  Ti  Ti815  1  0.16666664  0.26190479  0.25185185  1
  Ti  Ti816  1  0.16666664  0.33333336  0.25185185  1
  Ti  Ti817  1  0.16666664  0.40476193  0.25185185  1
  Ti  Ti818  1  0.16666664  0.47619050  0.25185185  1
  Ti  Ti819  1  0.16666664  0.54761907  0.25185185  1
  Ti  Ti820  1  0.16666664  0.61904764  0.25185185  1
  Ti  Ti821  1  0.16666664  0.69047621  0.25185185  1
  Ti  Ti822  1  0.16666664  0.76190479  0.25185185  1
  Ti  Ti823  1  0.16666664  0.83333336  0.25185185  1
  Ti  Ti824  1  0.16666664  0.90476193  0.25185185  1
  Ti  Ti825  1  0.16666664  0.97619050  0.25185185  1
  Ti  Ti826  1  0.23809521  0.04761907  0.25185185  1
  Ti  Ti827  1  0.23809521  0.11904764  0.25185185  1
  Ti  Ti828  1  0.23809521  0.19047621  0.25185185  1
  Ti  Ti829  1  0.23809521  0.26190479  0.25185185  1
  Ti  Ti830  1  0.23809521  0.33333336  0.25185185  1
  Ti  Ti831  1  0.23809521  0.40476193  0.25185185  1
  Ti  Ti832  1  0.23809521  0.47619050  0.25185185  1
  Ti  Ti833  1  0.23809521  0.54761907  0.25185185  1
  Ti  Ti834  1  0.23809521  0.61904764  0.25185185  1
  Ti  Ti835  1  0.23809521  0.69047621  0.25185185  1
  Ti  Ti836  1  0.23809521  0.76190479  0.25185185  1
  Ti  Ti837  1  0.23809521  0.83333336  0.25185185  1
  Ti  Ti838  1  0.23809521  0.90476193  0.25185185  1
  Ti  Ti839  1  0.23809521  0.97619050  0.25185185  1
  Ti  Ti840  1  0.30952379  0.04761907  0.25185185  1
  Ti  Ti841  1  0.30952379  0.11904764  0.25185185  1
  Ti  Ti842  1  0.30952379  0.19047621  0.25185185  1
  Ti  Ti843  1  0.30952379  0.26190479  0.25185185  1
  Ti  Ti844  1  0.30952379  0.33333336  0.25185185  1
  Ti  Ti845  1  0.30952379  0.40476193  0.25185185  1
  Ti  Ti846  1  0.30952379  0.47619050  0.25185185  1
  Ti  Ti847  1  0.30952379  0.54761907  0.25185185  1
  Ti  Ti848  1  0.30952379  0.61904764  0.25185185  1
  Ti  Ti849  1  0.30952379  0.69047621  0.25185185  1
  Ti  Ti850  1  0.30952379  0.76190479  0.25185185  1
  Ti  Ti851  1  0.30952379  0.83333336  0.25185185  1
  Ti  Ti852  1  0.30952379  0.90476193  0.25185185  1
  Ti  Ti853  1  0.30952379  0.97619050  0.25185185  1
  Ti  Ti854  1  0.38095236  0.04761907  0.25185185  1
  Ti  Ti855  1  0.38095236  0.11904764  0.25185185  1
  Ti  Ti856  1  0.38095236  0.19047621  0.25185185  1
  Ti  Ti857  1  0.38095236  0.26190479  0.25185185  1
  Ti  Ti858  1  0.38095236  0.33333336  0.25185185  1
  Ti  Ti859  1  0.38095236  0.40476193  0.25185185  1
  Ti  Ti860  1  0.38095236  0.47619050  0.25185185  1
  Ti  Ti861  1  0.38095236  0.54761907  0.25185185  1
  Ti  Ti862  1  0.38095236  0.61904764  0.25185185  1
  Ti  Ti863  1  0.38095236  0.69047621  0.25185185  1
  Ti  Ti864  1  0.38095236  0.76190479  0.25185185  1
  Ti  Ti865  1  0.38095236  0.83333336  0.25185185  1
  Ti  Ti866  1  0.38095236  0.90476193  0.25185185  1
  Ti  Ti867  1  0.38095236  0.97619050  0.25185185  1
  Ti  Ti868  1  0.45238093  0.04761907  0.25185185  1
  Ti  Ti869  1  0.45238093  0.11904764  0.25185185  1
  Ti  Ti870  1  0.45238093  0.19047621  0.25185185  1
  Ti  Ti871  1  0.45238093  0.26190479  0.25185185  1
  Ti  Ti872  1  0.45238093  0.33333336  0.25185185  1
  Ti  Ti873  1  0.45238093  0.40476193  0.25185185  1
  Ti  Ti874  1  0.45238093  0.47619050  0.25185185  1
  Ti  Ti875  1  0.45238093  0.54761907  0.25185185  1
  Ti  Ti876  1  0.45238093  0.61904764  0.25185185  1
  Ti  Ti877  1  0.45238093  0.69047621  0.25185185  1
  Ti  Ti878  1  0.45238093  0.76190479  0.25185185  1
  Ti  Ti879  1  0.45238093  0.83333336  0.25185185  1
  Ti  Ti880  1  0.45238093  0.90476193  0.25185185  1
  Ti  Ti881  1  0.45238093  0.97619050  0.25185185  1
  Ti  Ti882  1  0.52380950  0.04761907  0.25185185  1
  Ti  Ti883  1  0.52380950  0.11904764  0.25185185  1
  Ti  Ti884  1  0.52380950  0.19047621  0.25185185  1
  Ti  Ti885  1  0.52380950  0.26190479  0.25185185  1
  Ti  Ti886  1  0.52380950  0.33333336  0.25185185  1
  Ti  Ti887  1  0.52380950  0.40476193  0.25185185  1
  Ti  Ti888  1  0.52380950  0.47619050  0.25185185  1
  Ti  Ti889  1  0.52380950  0.54761907  0.25185185  1
  Ti  Ti890  1  0.52380950  0.61904764  0.25185185  1
  Ti  Ti891  1  0.52380950  0.69047621  0.25185185  1
  Ti  Ti892  1  0.52380950  0.76190479  0.25185185  1
  Ti  Ti893  1  0.52380950  0.83333336  0.25185185  1
  Ti  Ti894  1  0.52380950  0.90476193  0.25185185  1
  Ti  Ti895  1  0.52380950  0.97619050  0.25185185  1
  Ti  Ti896  1  0.59523807  0.04761907  0.25185185  1
  Ti  Ti897  1  0.59523807  0.11904764  0.25185185  1
  Ti  Ti898  1  0.59523807  0.19047621  0.25185185  1
  Ti  Ti899  1  0.59523807  0.26190479  0.25185185  1
  Ti  Ti900  1  0.59523807  0.33333336  0.25185185  1
  Ti  Ti901  1  0.59523807  0.40476193  0.25185185  1
  Ti  Ti902  1  0.59523807  0.47619050  0.25185185  1
  Ti  Ti903  1  0.59523807  0.54761907  0.25185185  1
  Ti  Ti904  1  0.59523807  0.61904764  0.25185185  1
  Ti  Ti905  1  0.59523807  0.69047621  0.25185185  1
  Ti  Ti906  1  0.59523807  0.76190479  0.25185185  1
  Ti  Ti907  1  0.59523807  0.83333336  0.25185185  1
  Ti  Ti908  1  0.59523807  0.90476193  0.25185185  1
  Ti  Ti909  1  0.59523807  0.97619050  0.25185185  1
  Ti  Ti910  1  0.66666664  0.04761907  0.25185185  1
  Ti  Ti911  1  0.66666664  0.11904764  0.25185185  1
  Ti  Ti912  1  0.66666664  0.19047621  0.25185185  1
  Ti  Ti913  1  0.66666664  0.26190479  0.25185185  1
  Ti  Ti914  1  0.66666664  0.33333336  0.25185185  1
  Ti  Ti915  1  0.66666664  0.40476193  0.25185185  1
  Ti  Ti916  1  0.66666664  0.47619050  0.25185185  1
  Ti  Ti917  1  0.66666664  0.54761907  0.25185185  1
  Ti  Ti918  1  0.66666664  0.61904764  0.25185185  1
  Ti  Ti919  1  0.66666664  0.69047621  0.25185185  1
  Ti  Ti920  1  0.66666664  0.76190479  0.25185185  1
  Ti  Ti921  1  0.66666664  0.83333336  0.25185185  1
  Ti  Ti922  1  0.66666664  0.90476193  0.25185185  1
  Ti  Ti923  1  0.66666664  0.97619050  0.25185185  1
  Ti  Ti924  1  0.73809521  0.04761907  0.25185185  1
  Ti  Ti925  1  0.73809521  0.11904764  0.25185185  1
  Ti  Ti926  1  0.73809521  0.19047621  0.25185185  1
  Ti  Ti927  1  0.73809521  0.26190479  0.25185185  1
  Ti  Ti928  1  0.73809521  0.33333336  0.25185185  1
  Ti  Ti929  1  0.73809521  0.40476193  0.25185185  1
  Ti  Ti930  1  0.73809521  0.47619050  0.25185185  1
  Ti  Ti931  1  0.73809521  0.54761907  0.25185185  1
  Ti  Ti932  1  0.73809521  0.61904764  0.25185185  1
  Ti  Ti933  1  0.73809521  0.69047621  0.25185185  1
  Ti  Ti934  1  0.73809521  0.76190479  0.25185185  1
  Ti  Ti935  1  0.73809521  0.83333336  0.25185185  1
  Ti  Ti936  1  0.73809521  0.90476193  0.25185185  1
  Ti  Ti937  1  0.73809521  0.97619050  0.25185185  1
  Ti  Ti938  1  0.80952379  0.04761907  0.25185185  1
  Ti  Ti939  1  0.80952379  0.11904764  0.25185185  1
  Ti  Ti940  1  0.80952379  0.19047621  0.25185185  1
  Ti  Ti941  1  0.80952379  0.26190479  0.25185185  1
  Ti  Ti942  1  0.80952379  0.33333336  0.25185185  1
  Ti  Ti943  1  0.80952379  0.40476193  0.25185185  1
  Ti  Ti944  1  0.80952379  0.47619050  0.25185185  1
  Ti  Ti945  1  0.80952379  0.54761907  0.25185185  1
  Ti  Ti946  1  0.80952379  0.61904764  0.25185185  1
  Ti  Ti947  1  0.80952379  0.69047621  0.25185185  1
  Ti  Ti948  1  0.80952379  0.76190479  0.25185185  1
  Ti  Ti949  1  0.80952379  0.83333336  0.25185185  1
  Ti  Ti950  1  0.80952379  0.90476193  0.25185185  1
  Ti  Ti951  1  0.80952379  0.97619050  0.25185185  1
  Ti  Ti952  1  0.88095236  0.04761907  0.25185185  1
  Ti  Ti953  1  0.88095236  0.11904764  0.25185185  1
  Ti  Ti954  1  0.88095236  0.19047621  0.25185185  1
  Ti  Ti955  1  0.88095236  0.26190479  0.25185185  1
  Ti  Ti956  1  0.88095236  0.33333336  0.25185185  1
  Ti  Ti957  1  0.88095236  0.40476193  0.25185185  1
  Ti  Ti958  1  0.88095236  0.47619050  0.25185185  1
  Ti  Ti959  1  0.88095236  0.54761907  0.25185185  1
  Ti  Ti960  1  0.88095236  0.61904764  0.25185185  1
  Ti  Ti961  1  0.88095236  0.69047621  0.25185185  1
  Ti  Ti962  1  0.88095236  0.76190479  0.25185185  1
  Ti  Ti963  1  0.88095236  0.83333336  0.25185185  1
  Ti  Ti964  1  0.88095236  0.90476193  0.25185185  1
  Ti  Ti965  1  0.88095236  0.97619050  0.25185185  1
  Ti  Ti966  1  0.95238093  0.04761907  0.25185185  1
  Ti  Ti967  1  0.95238093  0.11904764  0.25185185  1
  Ti  Ti968  1  0.95238093  0.19047621  0.25185185  1
  Ti  Ti969  1  0.95238093  0.26190479  0.25185185  1
  Ti  Ti970  1  0.95238093  0.33333336  0.25185185  1
  Ti  Ti971  1  0.95238093  0.40476193  0.25185185  1
  Ti  Ti972  1  0.95238093  0.47619050  0.25185185  1
  Ti  Ti973  1  0.95238093  0.54761907  0.25185185  1
  Ti  Ti974  1  0.95238093  0.61904764  0.25185185  1
  Ti  Ti975  1  0.95238093  0.69047621  0.25185185  1
  Ti  Ti976  1  0.95238093  0.76190479  0.25185185  1
  Ti  Ti977  1  0.95238093  0.83333336  0.25185185  1
  Ti  Ti978  1  0.95238093  0.90476193  0.25185185  1
  Ti  Ti979  1  0.95238093  0.97619050  0.25185185  1
  Ti  Ti980  1  0.04761907  0.02380950  0.25185185  1
  Ti  Ti981  1  0.04761907  0.09523807  0.25185185  1
  Ti  Ti982  1  0.04761907  0.16666664  0.25185185  1
  Ti  Ti983  1  0.04761907  0.23809521  0.25185185  1
  Ti  Ti984  1  0.04761907  0.30952379  0.25185185  1
  Ti  Ti985  1  0.04761907  0.38095236  0.25185185  1
  Ti  Ti986  1  0.04761907  0.45238093  0.25185185  1
  Ti  Ti987  1  0.04761907  0.52380950  0.25185185  1
  Ti  Ti988  1  0.04761907  0.59523807  0.25185185  1
  Ti  Ti989  1  0.04761907  0.66666664  0.25185185  1
  Ti  Ti990  1  0.04761907  0.73809521  0.25185185  1
  Ti  Ti991  1  0.04761907  0.80952379  0.25185185  1
  Ti  Ti992  1  0.04761907  0.88095236  0.25185185  1
  Ti  Ti993  1  0.04761907  0.95238093  0.25185185  1
  Ti  Ti994  1  0.11904764  0.02380950  0.25185185  1
  Ti  Ti995  1  0.11904764  0.09523807  0.25185185  1
  Ti  Ti996  1  0.11904764  0.16666664  0.25185185  1
  Ti  Ti997  1  0.11904764  0.23809521  0.25185185  1
  Ti  Ti998  1  0.11904764  0.30952379  0.25185185  1
  Ti  Ti999  1  0.11904764  0.38095236  0.25185185  1
  Ti  Ti1000  1  0.11904764  0.45238093  0.25185185  1
  Ti  Ti1001  1  0.11904764  0.52380950  0.25185185  1
  Ti  Ti1002  1  0.11904764  0.59523807  0.25185185  1
  Ti  Ti1003  1  0.11904764  0.66666664  0.25185185  1
  Ti  Ti1004  1  0.11904764  0.73809521  0.25185185  1
  Ti  Ti1005  1  0.11904764  0.80952379  0.25185185  1
  Ti  Ti1006  1  0.11904764  0.88095236  0.25185185  1
  Ti  Ti1007  1  0.11904764  0.95238093  0.25185185  1
  Ti  Ti1008  1  0.19047621  0.02380950  0.25185185  1
  Ti  Ti1009  1  0.19047621  0.09523807  0.25185185  1
  Ti  Ti1010  1  0.19047621  0.16666664  0.25185185  1
  Ti  Ti1011  1  0.19047621  0.23809521  0.25185185  1
  Ti  Ti1012  1  0.19047621  0.30952379  0.25185185  1
  Ti  Ti1013  1  0.19047621  0.38095236  0.25185185  1
  Ti  Ti1014  1  0.19047621  0.45238093  0.25185185  1
  Ti  Ti1015  1  0.19047621  0.52380950  0.25185185  1
  Ti  Ti1016  1  0.19047621  0.59523807  0.25185185  1
  Ti  Ti1017  1  0.19047621  0.66666664  0.25185185  1
  Ti  Ti1018  1  0.19047621  0.73809521  0.25185185  1
  Ti  Ti1019  1  0.19047621  0.80952379  0.25185185  1
  Ti  Ti1020  1  0.19047621  0.88095236  0.25185185  1
  Ti  Ti1021  1  0.19047621  0.95238093  0.25185185  1
  Ti  Ti1022  1  0.26190479  0.02380950  0.25185185  1
  Ti  Ti1023  1  0.26190479  0.09523807  0.25185185  1
  Ti  Ti1024  1  0.26190479  0.16666664  0.25185185  1
  Ti  Ti1025  1  0.26190479  0.23809521  0.25185185  1
  Ti  Ti1026  1  0.26190479  0.30952379  0.25185185  1
  Ti  Ti1027  1  0.26190479  0.38095236  0.25185185  1
  Ti  Ti1028  1  0.26190479  0.45238093  0.25185185  1
  Ti  Ti1029  1  0.26190479  0.52380950  0.25185185  1
  Ti  Ti1030  1  0.26190479  0.59523807  0.25185185  1
  Ti  Ti1031  1  0.26190479  0.66666664  0.25185185  1
  Ti  Ti1032  1  0.26190479  0.73809521  0.25185185  1
  Ti  Ti1033  1  0.26190479  0.80952379  0.25185185  1
  Ti  Ti1034  1  0.26190479  0.88095236  0.25185185  1
  Ti  Ti1035  1  0.26190479  0.95238093  0.25185185  1
  Ti  Ti1036  1  0.33333336  0.02380950  0.25185185  1
  Ti  Ti1037  1  0.33333336  0.09523807  0.25185185  1
  Ti  Ti1038  1  0.33333336  0.16666664  0.25185185  1
  Ti  Ti1039  1  0.33333336  0.23809521  0.25185185  1
  Ti  Ti1040  1  0.33333336  0.30952379  0.25185185  1
  Ti  Ti1041  1  0.33333336  0.38095236  0.25185185  1
  Ti  Ti1042  1  0.33333336  0.45238093  0.25185185  1
  Ti  Ti1043  1  0.33333336  0.52380950  0.25185185  1
  Ti  Ti1044  1  0.33333336  0.59523807  0.25185185  1
  Ti  Ti1045  1  0.33333336  0.66666664  0.25185185  1
  Ti  Ti1046  1  0.33333336  0.73809521  0.25185185  1
  Ti  Ti1047  1  0.33333336  0.80952379  0.25185185  1
  Ti  Ti1048  1  0.33333336  0.88095236  0.25185185  1
  Ti  Ti1049  1  0.33333336  0.95238093  0.25185185  1
  Ti  Ti1050  1  0.40476193  0.02380950  0.25185185  1
  Ti  Ti1051  1  0.40476193  0.09523807  0.25185185  1
  Ti  Ti1052  1  0.40476193  0.16666664  0.25185185  1
  Ti  Ti1053  1  0.40476193  0.23809521  0.25185185  1
  Ti  Ti1054  1  0.40476193  0.30952379  0.25185185  1
  Ti  Ti1055  1  0.40476193  0.38095236  0.25185185  1
  Ti  Ti1056  1  0.40476193  0.45238093  0.25185185  1
  Ti  Ti1057  1  0.40476193  0.52380950  0.25185185  1
  Ti  Ti1058  1  0.40476193  0.59523807  0.25185185  1
  Ti  Ti1059  1  0.40476193  0.66666664  0.25185185  1
  Ti  Ti1060  1  0.40476193  0.73809521  0.25185185  1
  Ti  Ti1061  1  0.40476193  0.80952379  0.25185185  1
  Ti  Ti1062  1  0.40476193  0.88095236  0.25185185  1
  Ti  Ti1063  1  0.40476193  0.95238093  0.25185185  1
  Ti  Ti1064  1  0.47619050  0.02380950  0.25185185  1
  Ti  Ti1065  1  0.47619050  0.09523807  0.25185185  1
  Ti  Ti1066  1  0.47619050  0.16666664  0.25185185  1
  Ti  Ti1067  1  0.47619050  0.23809521  0.25185185  1
  Ti  Ti1068  1  0.47619050  0.30952379  0.25185185  1
  Ti  Ti1069  1  0.47619050  0.38095236  0.25185185  1
  Ti  Ti1070  1  0.47619050  0.45238093  0.25185185  1
  Ti  Ti1071  1  0.47619050  0.52380950  0.25185185  1
  Ti  Ti1072  1  0.47619050  0.59523807  0.25185185  1
  Ti  Ti1073  1  0.47619050  0.66666664  0.25185185  1
  Ti  Ti1074  1  0.47619050  0.73809521  0.25185185  1
  Ti  Ti1075  1  0.47619050  0.80952379  0.25185185  1
  Ti  Ti1076  1  0.47619050  0.88095236  0.25185185  1
  Ti  Ti1077  1  0.47619050  0.95238093  0.25185185  1
  Ti  Ti1078  1  0.54761907  0.02380950  0.25185185  1
  Ti  Ti1079  1  0.54761907  0.09523807  0.25185185  1
  Ti  Ti1080  1  0.54761907  0.16666664  0.25185185  1
  Ti  Ti1081  1  0.54761907  0.23809521  0.25185185  1
  Ti  Ti1082  1  0.54761907  0.30952379  0.25185185  1
  Ti  Ti1083  1  0.54761907  0.38095236  0.25185185  1
  Ti  Ti1084  1  0.54761907  0.45238093  0.25185185  1
  Ti  Ti1085  1  0.54761907  0.52380950  0.25185185  1
  Ti  Ti1086  1  0.54761907  0.59523807  0.25185185  1
  Ti  Ti1087  1  0.54761907  0.66666664  0.25185185  1
  Ti  Ti1088  1  0.54761907  0.73809521  0.25185185  1
  Ti  Ti1089  1  0.54761907  0.80952379  0.25185185  1
  Ti  Ti1090  1  0.54761907  0.88095236  0.25185185  1
  Ti  Ti1091  1  0.54761907  0.95238093  0.25185185  1
  Ti  Ti1092  1  0.61904764  0.02380950  0.25185185  1
  Ti  Ti1093  1  0.61904764  0.09523807  0.25185185  1
  Ti  Ti1094  1  0.61904764  0.16666664  0.25185185  1
  Ti  Ti1095  1  0.61904764  0.23809521  0.25185185  1
  Ti  Ti1096  1  0.61904764  0.30952379  0.25185185  1
  Ti  Ti1097  1  0.61904764  0.38095236  0.25185185  1
  Ti  Ti1098  1  0.61904764  0.45238093  0.25185185  1
  Ti  Ti1099  1  0.61904764  0.52380950  0.25185185  1
  Ti  Ti1100  1  0.61904764  0.59523807  0.25185185  1
  Ti  Ti1101  1  0.61904764  0.66666664  0.25185185  1
  Ti  Ti1102  1  0.61904764  0.73809521  0.25185185  1
  Ti  Ti1103  1  0.61904764  0.80952379  0.25185185  1
  Ti  Ti1104  1  0.61904764  0.88095236  0.25185185  1
  Ti  Ti1105  1  0.61904764  0.95238093  0.25185185  1
  Ti  Ti1106  1  0.69047621  0.02380950  0.25185185  1
  Ti  Ti1107  1  0.69047621  0.09523807  0.25185185  1
  Ti  Ti1108  1  0.69047621  0.16666664  0.25185185  1
  Ti  Ti1109  1  0.69047621  0.23809521  0.25185185  1
  Ti  Ti1110  1  0.69047621  0.30952379  0.25185185  1
  Ti  Ti1111  1  0.69047621  0.38095236  0.25185185  1
  Ti  Ti1112  1  0.69047621  0.45238093  0.25185185  1
  Ti  Ti1113  1  0.69047621  0.52380950  0.25185185  1
  Ti  Ti1114  1  0.69047621  0.59523807  0.25185185  1
  Ti  Ti1115  1  0.69047621  0.66666664  0.25185185  1
  Ti  Ti1116  1  0.69047621  0.73809521  0.25185185  1
  Ti  Ti1117  1  0.69047621  0.80952379  0.25185185  1
  Ti  Ti1118  1  0.69047621  0.88095236  0.25185185  1
  Ti  Ti1119  1  0.69047621  0.95238093  0.25185185  1
  Ti  Ti1120  1  0.76190479  0.02380950  0.25185185  1
  Ti  Ti1121  1  0.76190479  0.09523807  0.25185185  1
  Ti  Ti1122  1  0.76190479  0.16666664  0.25185185  1
  Ti  Ti1123  1  0.76190479  0.23809521  0.25185185  1
  Ti  Ti1124  1  0.76190479  0.30952379  0.25185185  1
  Ti  Ti1125  1  0.76190479  0.38095236  0.25185185  1
  Ti  Ti1126  1  0.76190479  0.45238093  0.25185185  1
  Ti  Ti1127  1  0.76190479  0.52380950  0.25185185  1
  Ti  Ti1128  1  0.76190479  0.59523807  0.25185185  1
  Ti  Ti1129  1  0.76190479  0.66666664  0.25185185  1
  Ti  Ti1130  1  0.76190479  0.73809521  0.25185185  1
  Ti  Ti1131  1  0.76190479  0.80952379  0.25185185  1
  Ti  Ti1132  1  0.76190479  0.88095236  0.25185185  1
  Ti  Ti1133  1  0.76190479  0.95238093  0.25185185  1
  Ti  Ti1134  1  0.83333336  0.02380950  0.25185185  1
  Ti  Ti1135  1  0.83333336  0.09523807  0.25185185  1
  Ti  Ti1136  1  0.83333336  0.16666664  0.25185185  1
  Ti  Ti1137  1  0.83333336  0.23809521  0.25185185  1
  Ti  Ti1138  1  0.83333336  0.30952379  0.25185185  1
  Ti  Ti1139  1  0.83333336  0.38095236  0.25185185  1
  Ti  Ti1140  1  0.83333336  0.45238093  0.25185185  1
  Ti  Ti1141  1  0.83333336  0.52380950  0.25185185  1
  Ti  Ti1142  1  0.83333336  0.59523807  0.25185185  1
  Ti  Ti1143  1  0.83333336  0.66666664  0.25185185  1
  Ti  Ti1144  1  0.83333336  0.73809521  0.25185185  1
  Ti  Ti1145  1  0.83333336  0.80952379  0.25185185  1
  Ti  Ti1146  1  0.83333336  0.88095236  0.25185185  1
  Ti  Ti1147  1  0.83333336  0.95238093  0.25185185  1
  Ti  Ti1148  1  0.90476193  0.02380950  0.25185185  1
  Ti  Ti1149  1  0.90476193  0.09523807  0.25185185  1
  Ti  Ti1150  1  0.90476193  0.16666664  0.25185185  1
  Ti  Ti1151  1  0.90476193  0.23809521  0.25185185  1
  Ti  Ti1152  1  0.90476193  0.30952379  0.25185185  1
  Ti  Ti1153  1  0.90476193  0.38095236  0.25185185  1
  Ti  Ti1154  1  0.90476193  0.45238093  0.25185185  1
  Ti  Ti1155  1  0.90476193  0.52380950  0.25185185  1
  Ti  Ti1156  1  0.90476193  0.59523807  0.25185185  1
  Ti  Ti1157  1  0.90476193  0.66666664  0.25185185  1
  Ti  Ti1158  1  0.90476193  0.73809521  0.25185185  1
  Ti  Ti1159  1  0.90476193  0.80952379  0.25185185  1
  Ti  Ti1160  1  0.90476193  0.88095236  0.25185185  1
  Ti  Ti1161  1  0.90476193  0.95238093  0.25185185  1
  Ti  Ti1162  1  0.97619050  0.02380950  0.25185185  1
  Ti  Ti1163  1  0.97619050  0.09523807  0.25185185  1
  Ti  Ti1164  1  0.97619050  0.16666664  0.25185185  1
  Ti  Ti1165  1  0.97619050  0.23809521  0.25185185  1
  Ti  Ti1166  1  0.97619050  0.30952379  0.25185185  1
  Ti  Ti1167  1  0.97619050  0.38095236  0.25185185  1
  Ti  Ti1168  1  0.97619050  0.45238093  0.25185185  1
  Ti  Ti1169  1  0.97619050  0.52380950  0.25185185  1
  Ti  Ti1170  1  0.97619050  0.59523807  0.25185185  1
  Ti  Ti1171  1  0.97619050  0.66666664  0.25185185  1
  Ti  Ti1172  1  0.97619050  0.73809521  0.25185185  1
  Ti  Ti1173  1  0.97619050  0.80952379  0.25185185  1
  Ti  Ti1174  1  0.97619050  0.88095236  0.25185185  1
  Ti  Ti1175  1  0.97619050  0.95238093  0.25185185  1
  Ti  Ti1176  1  0.00000000  0.00000000  0.28518519  1
  Ti  Ti1177  1  0.00000000  0.07142857  0.28518519  1
  Ti  Ti1178  1  0.00000000  0.14285714  0.28518519  1
  Ti  Ti1179  1  0.00000000  0.21428571  0.28518519  1
  Ti  Ti1180  1  0.00000000  0.28571429  0.28518519  1
  Ti  Ti1181  1  0.00000000  0.35714286  0.28518519  1
  Ti  Ti1182  1  0.00000000  0.42857143  0.28518519  1
  Ti  Ti1183  1  0.00000000  0.50000000  0.28518519  1
  Ti  Ti1184  1  0.00000000  0.57142857  0.28518519  1
  Ti  Ti1185  1  0.00000000  0.64285714  0.28518519  1
  Ti  Ti1186  1  0.00000000  0.71428571  0.28518519  1
  Ti  Ti1187  1  1.00000000  0.78571429  0.28518519  1
  Ti  Ti1188  1  0.00000000  0.85714286  0.28518519  1
  Ti  Ti1189  1  0.00000000  0.92857143  0.28518519  1
  Ti  Ti1190  1  0.07142857  0.00000000  0.28518519  1
  Ti  Ti1191  1  0.07142857  0.07142857  0.28518519  1
  Ti  Ti1192  1  0.07142857  0.14285714  0.28518519  1
  Ti  Ti1193  1  0.07142857  0.21428571  0.28518519  1
  Ti  Ti1194  1  0.07142857  0.28571429  0.28518519  1
  Ti  Ti1195  1  0.07142857  0.35714286  0.28518519  1
  Ti  Ti1196  1  0.07142857  0.42857143  0.28518519  1
  Ti  Ti1197  1  0.07142857  0.50000000  0.28518519  1
  Ti  Ti1198  1  0.07142857  0.57142857  0.28518519  1
  Ti  Ti1199  1  0.07142857  0.64285714  0.28518519  1
  Ti  Ti1200  1  0.07142857  0.71428571  0.28518519  1
  Ti  Ti1201  1  0.07142857  0.78571429  0.28518519  1
  Ti  Ti1202  1  0.07142857  0.85714286  0.28518519  1
  Ti  Ti1203  1  0.07142857  0.92857143  0.28518519  1
  Ti  Ti1204  1  0.14285714  0.00000000  0.28518519  1
  Ti  Ti1205  1  0.14285714  0.07142857  0.28518519  1
  Ti  Ti1206  1  0.14285714  0.14285714  0.28518519  1
  Ti  Ti1207  1  0.14285714  0.21428571  0.28518519  1
  Ti  Ti1208  1  0.14285714  0.28571429  0.28518519  1
  Ti  Ti1209  1  0.14285714  0.35714286  0.28518519  1
  Ti  Ti1210  1  0.14285714  0.42857143  0.28518519  1
  Ti  Ti1211  1  0.14285714  0.50000000  0.28518519  1
  Ti  Ti1212  1  0.14285714  0.57142857  0.28518519  1
  Ti  Ti1213  1  0.14285714  0.64285714  0.28518519  1
  Ti  Ti1214  1  0.14285714  0.71428571  0.28518519  1
  Ti  Ti1215  1  0.14285714  0.78571429  0.28518519  1
  Ti  Ti1216  1  0.14285714  0.85714286  0.28518519  1
  Ti  Ti1217  1  0.14285714  0.92857143  0.28518519  1
  Ti  Ti1218  1  0.21428571  0.00000000  0.28518519  1
  Ti  Ti1219  1  0.21428571  0.07142857  0.28518519  1
  Ti  Ti1220  1  0.21428571  0.14285714  0.28518519  1
  Ti  Ti1221  1  0.21428571  0.21428571  0.28518519  1
  Ti  Ti1222  1  0.21428571  0.28571429  0.28518519  1
  Ti  Ti1223  1  0.21428571  0.35714286  0.28518519  1
  Ti  Ti1224  1  0.21428571  0.42857143  0.28518519  1
  Ti  Ti1225  1  0.21428571  0.50000000  0.28518519  1
  Ti  Ti1226  1  0.21428571  0.57142857  0.28518519  1
  Ti  Ti1227  1  0.21428571  0.64285714  0.28518519  1
  Ti  Ti1228  1  0.21428571  0.71428571  0.28518519  1
  Ti  Ti1229  1  0.21428571  0.78571429  0.28518519  1
  Ti  Ti1230  1  0.21428571  0.85714286  0.28518519  1
  Ti  Ti1231  1  0.21428571  0.92857143  0.28518519  1
  Ti  Ti1232  1  0.28571429  0.00000000  0.28518519  1
  Ti  Ti1233  1  0.28571429  0.07142857  0.28518519  1
  Ti  Ti1234  1  0.28571429  0.14285714  0.28518519  1
  Ti  Ti1235  1  0.28571429  0.21428571  0.28518519  1
  Ti  Ti1236  1  0.28571429  0.28571429  0.28518519  1
  Ti  Ti1237  1  0.28571429  0.35714286  0.28518519  1
  Ti  Ti1238  1  0.28571429  0.42857143  0.28518519  1
  Ti  Ti1239  1  0.28571429  0.50000000  0.28518519  1
  Ti  Ti1240  1  0.28571429  0.57142857  0.28518519  1
  Ti  Ti1241  1  0.28571429  0.64285714  0.28518519  1
  Ti  Ti1242  1  0.28571429  0.71428571  0.28518519  1
  Ti  Ti1243  1  0.28571429  0.78571429  0.28518519  1
  Ti  Ti1244  1  0.28571429  0.85714286  0.28518519  1
  Ti  Ti1245  1  0.28571429  0.92857143  0.28518519  1
  Ti  Ti1246  1  0.35714286  0.00000000  0.28518519  1
  Ti  Ti1247  1  0.35714286  0.07142857  0.28518519  1
  Ti  Ti1248  1  0.35714286  0.14285714  0.28518519  1
  Ti  Ti1249  1  0.35714286  0.21428571  0.28518519  1
  Ti  Ti1250  1  0.35714286  0.28571429  0.28518519  1
  Ti  Ti1251  1  0.35714286  0.35714286  0.28518519  1
  Ti  Ti1252  1  0.35714286  0.42857143  0.28518519  1
  Ti  Ti1253  1  0.35714286  0.50000000  0.28518519  1
  Ti  Ti1254  1  0.35714286  0.57142857  0.28518519  1
  Ti  Ti1255  1  0.35714286  0.64285714  0.28518519  1
  Ti  Ti1256  1  0.35714286  0.71428571  0.28518519  1
  Ti  Ti1257  1  0.35714286  0.78571429  0.28518519  1
  Ti  Ti1258  1  0.35714286  0.85714286  0.28518519  1
  Ti  Ti1259  1  0.35714286  0.92857143  0.28518519  1
  Ti  Ti1260  1  0.42857143  0.00000000  0.28518519  1
  Ti  Ti1261  1  0.42857143  0.07142857  0.28518519  1
  Ti  Ti1262  1  0.42857143  0.14285714  0.28518519  1
  Ti  Ti1263  1  0.42857143  0.21428571  0.28518519  1
  Ti  Ti1264  1  0.42857143  0.28571429  0.28518519  1
  Ti  Ti1265  1  0.42857143  0.35714286  0.28518519  1
  Ti  Ti1266  1  0.42857143  0.42857143  0.28518519  1
  Ti  Ti1267  1  0.42857143  0.50000000  0.28518519  1
  Ti  Ti1268  1  0.42857143  0.57142857  0.28518519  1
  Ti  Ti1269  1  0.42857143  0.64285714  0.28518519  1
  Ti  Ti1270  1  0.42857143  0.71428571  0.28518519  1
  Ti  Ti1271  1  0.42857143  0.78571429  0.28518519  1
  Ti  Ti1272  1  0.42857143  0.85714286  0.28518519  1
  Ti  Ti1273  1  0.42857143  0.92857143  0.28518519  1
  Ti  Ti1274  1  0.50000000  0.00000000  0.28518519  1
  Ti  Ti1275  1  0.50000000  0.07142857  0.28518519  1
  Ti  Ti1276  1  0.50000000  0.14285714  0.28518519  1
  Ti  Ti1277  1  0.50000000  0.21428571  0.28518519  1
  Ti  Ti1278  1  0.50000000  0.28571429  0.28518519  1
  Ti  Ti1279  1  0.50000000  0.35714286  0.28518519  1
  Ti  Ti1280  1  0.50000000  0.42857143  0.28518519  1
  Ti  Ti1281  1  0.50000000  0.50000000  0.28518519  1
  Ti  Ti1282  1  0.50000000  0.57142857  0.28518519  1
  Ti  Ti1283  1  0.50000000  0.64285714  0.28518519  1
  Ti  Ti1284  1  0.50000000  0.71428571  0.28518519  1
  Ti  Ti1285  1  0.50000000  0.78571429  0.28518519  1
  Ti  Ti1286  1  0.50000000  0.85714286  0.28518519  1
  Ti  Ti1287  1  0.50000000  0.92857143  0.28518519  1
  Ti  Ti1288  1  0.57142857  0.00000000  0.28518519  1
  Ti  Ti1289  1  0.57142857  0.07142857  0.28518519  1
  Ti  Ti1290  1  0.57142857  0.14285714  0.28518519  1
  Ti  Ti1291  1  0.57142857  0.21428571  0.28518519  1
  Ti  Ti1292  1  0.57142857  0.28571429  0.28518519  1
  Ti  Ti1293  1  0.57142857  0.35714286  0.28518519  1
  Ti  Ti1294  1  0.57142857  0.42857143  0.28518519  1
  Ti  Ti1295  1  0.57142857  0.50000000  0.28518519  1
  Ti  Ti1296  1  0.57142857  0.57142857  0.28518519  1
  Ti  Ti1297  1  0.57142857  0.64285714  0.28518519  1
  Ti  Ti1298  1  0.57142857  0.71428571  0.28518519  1
  Ti  Ti1299  1  0.57142857  0.78571429  0.28518519  1
  Ti  Ti1300  1  0.57142857  0.85714286  0.28518519  1
  Ti  Ti1301  1  0.57142857  0.92857143  0.28518519  1
  Ti  Ti1302  1  0.64285714  0.00000000  0.28518519  1
  Ti  Ti1303  1  0.64285714  0.07142857  0.28518519  1
  Ti  Ti1304  1  0.64285714  0.14285714  0.28518519  1
  Ti  Ti1305  1  0.64285714  0.21428571  0.28518519  1
  Ti  Ti1306  1  0.64285714  0.28571429  0.28518519  1
  Ti  Ti1307  1  0.64285714  0.35714286  0.28518519  1
  Ti  Ti1308  1  0.64285714  0.42857143  0.28518519  1
  Ti  Ti1309  1  0.64285714  0.50000000  0.28518519  1
  Ti  Ti1310  1  0.64285714  0.57142857  0.28518519  1
  Ti  Ti1311  1  0.64285714  0.64285714  0.28518519  1
  Ti  Ti1312  1  0.64285714  0.71428571  0.28518519  1
  Ti  Ti1313  1  0.64285714  0.78571429  0.28518519  1
  Ti  Ti1314  1  0.64285714  0.85714286  0.28518519  1
  Ti  Ti1315  1  0.64285714  0.92857143  0.28518519  1
  Ti  Ti1316  1  0.71428571  0.00000000  0.28518519  1
  Ti  Ti1317  1  0.71428571  0.07142857  0.28518519  1
  Ti  Ti1318  1  0.71428571  0.14285714  0.28518519  1
  Ti  Ti1319  1  0.71428571  0.21428571  0.28518519  1
  Ti  Ti1320  1  0.71428571  0.28571429  0.28518519  1
  Ti  Ti1321  1  0.71428571  0.35714286  0.28518519  1
  Ti  Ti1322  1  0.71428571  0.42857143  0.28518519  1
  Ti  Ti1323  1  0.71428571  0.50000000  0.28518519  1
  Ti  Ti1324  1  0.71428571  0.57142857  0.28518519  1
  Ti  Ti1325  1  0.71428571  0.64285714  0.28518519  1
  Ti  Ti1326  1  0.71428571  0.71428571  0.28518519  1
  Ti  Ti1327  1  0.71428571  0.78571429  0.28518519  1
  Ti  Ti1328  1  0.71428571  0.85714286  0.28518519  1
  Ti  Ti1329  1  0.71428571  0.92857143  0.28518519  1
  Ti  Ti1330  1  0.78571429  0.00000000  0.28518519  1
  Ti  Ti1331  1  0.78571429  0.07142857  0.28518519  1
  Ti  Ti1332  1  0.78571429  0.14285714  0.28518519  1
  Ti  Ti1333  1  0.78571429  0.21428571  0.28518519  1
  Ti  Ti1334  1  0.78571429  0.28571429  0.28518519  1
  Ti  Ti1335  1  0.78571429  0.35714286  0.28518519  1
  Ti  Ti1336  1  0.78571429  0.42857143  0.28518519  1
  Ti  Ti1337  1  0.78571429  0.50000000  0.28518519  1
  Ti  Ti1338  1  0.78571429  0.57142857  0.28518519  1
  Ti  Ti1339  1  0.78571429  0.64285714  0.28518519  1
  Ti  Ti1340  1  0.78571429  0.71428571  0.28518519  1
  Ti  Ti1341  1  0.78571429  0.78571429  0.28518519  1
  Ti  Ti1342  1  0.78571429  0.85714286  0.28518519  1
  Ti  Ti1343  1  0.78571429  0.92857143  0.28518519  1
  Ti  Ti1344  1  0.85714286  0.00000000  0.28518519  1
  Ti  Ti1345  1  0.85714286  0.07142857  0.28518519  1
  Ti  Ti1346  1  0.85714286  0.14285714  0.28518519  1
  Ti  Ti1347  1  0.85714286  0.21428571  0.28518519  1
  Ti  Ti1348  1  0.85714286  0.28571429  0.28518519  1
  Ti  Ti1349  1  0.85714286  0.35714286  0.28518519  1
  Ti  Ti1350  1  0.85714286  0.42857143  0.28518519  1
  Ti  Ti1351  1  0.85714286  0.50000000  0.28518519  1
  Ti  Ti1352  1  0.85714286  0.57142857  0.28518519  1
  Ti  Ti1353  1  0.85714286  0.64285714  0.28518519  1
  Ti  Ti1354  1  0.85714286  0.71428571  0.28518519  1
  Ti  Ti1355  1  0.85714286  0.78571429  0.28518519  1
  Ti  Ti1356  1  0.85714286  0.85714286  0.28518519  1
  Ti  Ti1357  1  0.85714286  0.92857143  0.28518519  1
  Ti  Ti1358  1  0.92857143  0.00000000  0.28518519  1
  Ti  Ti1359  1  0.92857143  0.07142857  0.28518519  1
  Ti  Ti1360  1  0.92857143  0.14285714  0.28518519  1
  Ti  Ti1361  1  0.92857143  0.21428571  0.28518519  1
  Ti  Ti1362  1  0.92857143  0.28571429  0.28518519  1
  Ti  Ti1363  1  0.92857143  0.35714286  0.28518519  1
  Ti  Ti1364  1  0.92857143  0.42857143  0.28518519  1
  Ti  Ti1365  1  0.92857143  0.50000000  0.28518519  1
  Ti  Ti1366  1  0.92857143  0.57142857  0.28518519  1
  Ti  Ti1367  1  0.92857143  0.64285714  0.28518519  1
  Ti  Ti1368  1  0.92857143  0.71428571  0.28518519  1
  Ti  Ti1369  1  0.92857143  0.78571429  0.28518519  1
  Ti  Ti1370  1  0.92857143  0.85714286  0.28518519  1
  Ti  Ti1371  1  0.92857143  0.92857143  0.28518519  1
  Ti  Ti1372  1  0.02380950  0.04761907  0.27407407  1
  Ti  Ti1373  1  0.02380950  0.11904764  0.27407407  1
  Ti  Ti1374  1  0.02380950  0.19047621  0.27407407  1
  Ti  Ti1375  1  0.02380950  0.26190479  0.27407407  1
  Ti  Ti1376  1  0.02380950  0.33333336  0.27407407  1
  Ti  Ti1377  1  0.02380950  0.40476193  0.27407407  1
  Ti  Ti1378  1  0.02380950  0.47619050  0.27407407  1
  Ti  Ti1379  1  0.02380950  0.54761907  0.27407407  1
  Ti  Ti1380  1  0.02380950  0.61904764  0.27407407  1
  Ti  Ti1381  1  0.02380950  0.69047621  0.27407407  1
  Ti  Ti1382  1  0.02380950  0.76190479  0.27407407  1
  Ti  Ti1383  1  0.02380950  0.83333336  0.27407407  1
  Ti  Ti1384  1  0.02380950  0.90476193  0.27407407  1
  Ti  Ti1385  1  0.02380950  0.97619050  0.27407407  1
  Ti  Ti1386  1  0.09523807  0.04761907  0.27407407  1
  Ti  Ti1387  1  0.09523807  0.11904764  0.27407407  1
  Ti  Ti1388  1  0.09523807  0.19047621  0.27407407  1
  Ti  Ti1389  1  0.09523807  0.26190479  0.27407407  1
  Ti  Ti1390  1  0.09523807  0.33333336  0.27407407  1
  Ti  Ti1391  1  0.09523807  0.40476193  0.27407407  1
  Ti  Ti1392  1  0.09523807  0.47619050  0.27407407  1
  Ti  Ti1393  1  0.09523807  0.54761907  0.27407407  1
  Ti  Ti1394  1  0.09523807  0.61904764  0.27407407  1
  Ti  Ti1395  1  0.09523807  0.69047621  0.27407407  1
  Ti  Ti1396  1  0.09523807  0.76190479  0.27407407  1
  Ti  Ti1397  1  0.09523807  0.83333336  0.27407407  1
  Ti  Ti1398  1  0.09523807  0.90476193  0.27407407  1
  Ti  Ti1399  1  0.09523807  0.97619050  0.27407407  1
  Ti  Ti1400  1  0.16666664  0.04761907  0.27407407  1
  Ti  Ti1401  1  0.16666664  0.11904764  0.27407407  1
  Ti  Ti1402  1  0.16666664  0.19047621  0.27407407  1
  Ti  Ti1403  1  0.16666664  0.26190479  0.27407407  1
  Ti  Ti1404  1  0.16666664  0.33333336  0.27407407  1
  Ti  Ti1405  1  0.16666664  0.40476193  0.27407407  1
  Ti  Ti1406  1  0.16666664  0.47619050  0.27407407  1
  Ti  Ti1407  1  0.16666664  0.54761907  0.27407407  1
  Ti  Ti1408  1  0.16666664  0.61904764  0.27407407  1
  Ti  Ti1409  1  0.16666664  0.69047621  0.27407407  1
  Ti  Ti1410  1  0.16666664  0.76190479  0.27407407  1
  Ti  Ti1411  1  0.16666664  0.83333336  0.27407407  1
  Ti  Ti1412  1  0.16666664  0.90476193  0.27407407  1
  Ti  Ti1413  1  0.16666664  0.97619050  0.27407407  1
  Ti  Ti1414  1  0.23809521  0.04761907  0.27407407  1
  Ti  Ti1415  1  0.23809521  0.11904764  0.27407407  1
  Ti  Ti1416  1  0.23809521  0.19047621  0.27407407  1
  Ti  Ti1417  1  0.23809521  0.26190479  0.27407407  1
  Ti  Ti1418  1  0.23809521  0.33333336  0.27407407  1
  Ti  Ti1419  1  0.23809521  0.40476193  0.27407407  1
  Ti  Ti1420  1  0.23809521  0.47619050  0.27407407  1
  Ti  Ti1421  1  0.23809521  0.54761907  0.27407407  1
  Ti  Ti1422  1  0.23809521  0.61904764  0.27407407  1
  Ti  Ti1423  1  0.23809521  0.69047621  0.27407407  1
  Ti  Ti1424  1  0.23809521  0.76190479  0.27407407  1
  Ti  Ti1425  1  0.23809521  0.83333336  0.27407407  1
  Ti  Ti1426  1  0.23809521  0.90476193  0.27407407  1
  Ti  Ti1427  1  0.23809521  0.97619050  0.27407407  1
  Ti  Ti1428  1  0.30952379  0.04761907  0.27407407  1
  Ti  Ti1429  1  0.30952379  0.11904764  0.27407407  1
  Ti  Ti1430  1  0.30952379  0.19047621  0.27407407  1
  Ti  Ti1431  1  0.30952379  0.26190479  0.27407407  1
  Ti  Ti1432  1  0.30952379  0.33333336  0.27407407  1
  Ti  Ti1433  1  0.30952379  0.40476193  0.27407407  1
  Ti  Ti1434  1  0.30952379  0.47619050  0.27407407  1
  Ti  Ti1435  1  0.30952379  0.54761907  0.27407407  1
  Ti  Ti1436  1  0.30952379  0.61904764  0.27407407  1
  Ti  Ti1437  1  0.30952379  0.69047621  0.27407407  1
  Ti  Ti1438  1  0.30952379  0.76190479  0.27407407  1
  Ti  Ti1439  1  0.30952379  0.83333336  0.27407407  1
  Ti  Ti1440  1  0.30952379  0.90476193  0.27407407  1
  Ti  Ti1441  1  0.30952379  0.97619050  0.27407407  1
  Ti  Ti1442  1  0.38095236  0.04761907  0.27407407  1
  Ti  Ti1443  1  0.38095236  0.11904764  0.27407407  1
  Ti  Ti1444  1  0.38095236  0.19047621  0.27407407  1
  Ti  Ti1445  1  0.38095236  0.26190479  0.27407407  1
  Ti  Ti1446  1  0.38095236  0.33333336  0.27407407  1
  Ti  Ti1447  1  0.38095236  0.40476193  0.27407407  1
  Ti  Ti1448  1  0.38095236  0.47619050  0.27407407  1
  Ti  Ti1449  1  0.38095236  0.54761907  0.27407407  1
  Ti  Ti1450  1  0.38095236  0.61904764  0.27407407  1
  Ti  Ti1451  1  0.38095236  0.69047621  0.27407407  1
  Ti  Ti1452  1  0.38095236  0.76190479  0.27407407  1
  Ti  Ti1453  1  0.38095236  0.83333336  0.27407407  1
  Ti  Ti1454  1  0.38095236  0.90476193  0.27407407  1
  Ti  Ti1455  1  0.38095236  0.97619050  0.27407407  1
  Ti  Ti1456  1  0.45238093  0.04761907  0.27407407  1
  Ti  Ti1457  1  0.45238093  0.11904764  0.27407407  1
  Ti  Ti1458  1  0.45238093  0.19047621  0.27407407  1
  Ti  Ti1459  1  0.45238093  0.26190479  0.27407407  1
  Ti  Ti1460  1  0.45238093  0.33333336  0.27407407  1
  Ti  Ti1461  1  0.45238093  0.40476193  0.27407407  1
  Ti  Ti1462  1  0.45238093  0.47619050  0.27407407  1
  Ti  Ti1463  1  0.45238093  0.54761907  0.27407407  1
  Ti  Ti1464  1  0.45238093  0.61904764  0.27407407  1
  Ti  Ti1465  1  0.45238093  0.69047621  0.27407407  1
  Ti  Ti1466  1  0.45238093  0.76190479  0.27407407  1
  Ti  Ti1467  1  0.45238093  0.83333336  0.27407407  1
  Ti  Ti1468  1  0.45238093  0.90476193  0.27407407  1
  Ti  Ti1469  1  0.45238093  0.97619050  0.27407407  1
  Ti  Ti1470  1  0.52380950  0.04761907  0.27407407  1
  Ti  Ti1471  1  0.52380950  0.11904764  0.27407407  1
  Ti  Ti1472  1  0.52380950  0.19047621  0.27407407  1
  Ti  Ti1473  1  0.52380950  0.26190479  0.27407407  1
  Ti  Ti1474  1  0.52380950  0.33333336  0.27407407  1
  Ti  Ti1475  1  0.52380950  0.40476193  0.27407407  1
  Ti  Ti1476  1  0.52380950  0.47619050  0.27407407  1
  Ti  Ti1477  1  0.52380950  0.54761907  0.27407407  1
  Ti  Ti1478  1  0.52380950  0.61904764  0.27407407  1
  Ti  Ti1479  1  0.52380950  0.69047621  0.27407407  1
  Ti  Ti1480  1  0.52380950  0.76190479  0.27407407  1
  Ti  Ti1481  1  0.52380950  0.83333336  0.27407407  1
  Ti  Ti1482  1  0.52380950  0.90476193  0.27407407  1
  Ti  Ti1483  1  0.52380950  0.97619050  0.27407407  1
  Ti  Ti1484  1  0.59523807  0.04761907  0.27407407  1
  Ti  Ti1485  1  0.59523807  0.11904764  0.27407407  1
  Ti  Ti1486  1  0.59523807  0.19047621  0.27407407  1
  Ti  Ti1487  1  0.59523807  0.26190479  0.27407407  1
  Ti  Ti1488  1  0.59523807  0.33333336  0.27407407  1
  Ti  Ti1489  1  0.59523807  0.40476193  0.27407407  1
  Ti  Ti1490  1  0.59523807  0.47619050  0.27407407  1
  Ti  Ti1491  1  0.59523807  0.54761907  0.27407407  1
  Ti  Ti1492  1  0.59523807  0.61904764  0.27407407  1
  Ti  Ti1493  1  0.59523807  0.69047621  0.27407407  1
  Ti  Ti1494  1  0.59523807  0.76190479  0.27407407  1
  Ti  Ti1495  1  0.59523807  0.83333336  0.27407407  1
  Ti  Ti1496  1  0.59523807  0.90476193  0.27407407  1
  Ti  Ti1497  1  0.59523807  0.97619050  0.27407407  1
  Ti  Ti1498  1  0.66666664  0.04761907  0.27407407  1
  Ti  Ti1499  1  0.66666664  0.11904764  0.27407407  1
  Ti  Ti1500  1  0.66666664  0.19047621  0.27407407  1
  Ti  Ti1501  1  0.66666664  0.26190479  0.27407407  1
  Ti  Ti1502  1  0.66666664  0.33333336  0.27407407  1
  Ti  Ti1503  1  0.66666664  0.40476193  0.27407407  1
  Ti  Ti1504  1  0.66666664  0.47619050  0.27407407  1
  Ti  Ti1505  1  0.66666664  0.54761907  0.27407407  1
  Ti  Ti1506  1  0.66666664  0.61904764  0.27407407  1
  Ti  Ti1507  1  0.66666664  0.69047621  0.27407407  1
  Ti  Ti1508  1  0.66666664  0.76190479  0.27407407  1
  Ti  Ti1509  1  0.66666664  0.83333336  0.27407407  1
  Ti  Ti1510  1  0.66666664  0.90476193  0.27407407  1
  Ti  Ti1511  1  0.66666664  0.97619050  0.27407407  1
  Ti  Ti1512  1  0.73809521  0.04761907  0.27407407  1
  Ti  Ti1513  1  0.73809521  0.11904764  0.27407407  1
  Ti  Ti1514  1  0.73809521  0.19047621  0.27407407  1
  Ti  Ti1515  1  0.73809521  0.26190479  0.27407407  1
  Ti  Ti1516  1  0.73809521  0.33333336  0.27407407  1
  Ti  Ti1517  1  0.73809521  0.40476193  0.27407407  1
  Ti  Ti1518  1  0.73809521  0.47619050  0.27407407  1
  Ti  Ti1519  1  0.73809521  0.54761907  0.27407407  1
  Ti  Ti1520  1  0.73809521  0.61904764  0.27407407  1
  Ti  Ti1521  1  0.73809521  0.69047621  0.27407407  1
  Ti  Ti1522  1  0.73809521  0.76190479  0.27407407  1
  Ti  Ti1523  1  0.73809521  0.83333336  0.27407407  1
  Ti  Ti1524  1  0.73809521  0.90476193  0.27407407  1
  Ti  Ti1525  1  0.73809521  0.97619050  0.27407407  1
  Ti  Ti1526  1  0.80952379  0.04761907  0.27407407  1
  Ti  Ti1527  1  0.80952379  0.11904764  0.27407407  1
  Ti  Ti1528  1  0.80952379  0.19047621  0.27407407  1
  Ti  Ti1529  1  0.80952379  0.26190479  0.27407407  1
  Ti  Ti1530  1  0.80952379  0.33333336  0.27407407  1
  Ti  Ti1531  1  0.80952379  0.40476193  0.27407407  1
  Ti  Ti1532  1  0.80952379  0.47619050  0.27407407  1
  Ti  Ti1533  1  0.80952379  0.54761907  0.27407407  1
  Ti  Ti1534  1  0.80952379  0.61904764  0.27407407  1
  Ti  Ti1535  1  0.80952379  0.69047621  0.27407407  1
  Ti  Ti1536  1  0.80952379  0.76190479  0.27407407  1
  Ti  Ti1537  1  0.80952379  0.83333336  0.27407407  1
  Ti  Ti1538  1  0.80952379  0.90476193  0.27407407  1
  Ti  Ti1539  1  0.80952379  0.97619050  0.27407407  1
  Ti  Ti1540  1  0.88095236  0.04761907  0.27407407  1
  Ti  Ti1541  1  0.88095236  0.11904764  0.27407407  1
  Ti  Ti1542  1  0.88095236  0.19047621  0.27407407  1
  Ti  Ti1543  1  0.88095236  0.26190479  0.27407407  1
  Ti  Ti1544  1  0.88095236  0.33333336  0.27407407  1
  Ti  Ti1545  1  0.88095236  0.40476193  0.27407407  1
  Ti  Ti1546  1  0.88095236  0.47619050  0.27407407  1
  Ti  Ti1547  1  0.88095236  0.54761907  0.27407407  1
  Ti  Ti1548  1  0.88095236  0.61904764  0.27407407  1
  Ti  Ti1549  1  0.88095236  0.69047621  0.27407407  1
  Ti  Ti1550  1  0.88095236  0.76190479  0.27407407  1
  Ti  Ti1551  1  0.88095236  0.83333336  0.27407407  1
  Ti  Ti1552  1  0.88095236  0.90476193  0.27407407  1
  Ti  Ti1553  1  0.88095236  0.97619050  0.27407407  1
  Ti  Ti1554  1  0.95238093  0.04761907  0.27407407  1
  Ti  Ti1555  1  0.95238093  0.11904764  0.27407407  1
  Ti  Ti1556  1  0.95238093  0.19047621  0.27407407  1
  Ti  Ti1557  1  0.95238093  0.26190479  0.27407407  1
  Ti  Ti1558  1  0.95238093  0.33333336  0.27407407  1
  Ti  Ti1559  1  0.95238093  0.40476193  0.27407407  1
  Ti  Ti1560  1  0.95238093  0.47619050  0.27407407  1
  Ti  Ti1561  1  0.95238093  0.54761907  0.27407407  1
  Ti  Ti1562  1  0.95238093  0.61904764  0.27407407  1
  Ti  Ti1563  1  0.95238093  0.69047621  0.27407407  1
  Ti  Ti1564  1  0.95238093  0.76190479  0.27407407  1
  Ti  Ti1565  1  0.95238093  0.83333336  0.27407407  1
  Ti  Ti1566  1  0.95238093  0.90476193  0.27407407  1
  Ti  Ti1567  1  0.95238093  0.97619050  0.27407407  1
  Ti  Ti1568  1  0.04761907  0.02380950  0.27407407  1
  Ti  Ti1569  1  0.04761907  0.09523807  0.27407407  1
  Ti  Ti1570  1  0.04761907  0.16666664  0.27407407  1
  Ti  Ti1571  1  0.04761907  0.23809521  0.27407407  1
  Ti  Ti1572  1  0.04761907  0.30952379  0.27407407  1
  Ti  Ti1573  1  0.04761907  0.38095236  0.27407407  1
  Ti  Ti1574  1  0.04761907  0.45238093  0.27407407  1
  Ti  Ti1575  1  0.04761907  0.52380950  0.27407407  1
  Ti  Ti1576  1  0.04761907  0.59523807  0.27407407  1
  Ti  Ti1577  1  0.04761907  0.66666664  0.27407407  1
  Ti  Ti1578  1  0.04761907  0.73809521  0.27407407  1
  Ti  Ti1579  1  0.04761907  0.80952379  0.27407407  1
  Ti  Ti1580  1  0.04761907  0.88095236  0.27407407  1
  Ti  Ti1581  1  0.04761907  0.95238093  0.27407407  1
  Ti  Ti1582  1  0.11904764  0.02380950  0.27407407  1
  Ti  Ti1583  1  0.11904764  0.09523807  0.27407407  1
  Ti  Ti1584  1  0.11904764  0.16666664  0.27407407  1
  Ti  Ti1585  1  0.11904764  0.23809521  0.27407407  1
  Ti  Ti1586  1  0.11904764  0.30952379  0.27407407  1
  Ti  Ti1587  1  0.11904764  0.38095236  0.27407407  1
  Ti  Ti1588  1  0.11904764  0.45238093  0.27407407  1
  Ti  Ti1589  1  0.11904764  0.52380950  0.27407407  1
  Ti  Ti1590  1  0.11904764  0.59523807  0.27407407  1
  Ti  Ti1591  1  0.11904764  0.66666664  0.27407407  1
  Ti  Ti1592  1  0.11904764  0.73809521  0.27407407  1
  Ti  Ti1593  1  0.11904764  0.80952379  0.27407407  1
  Ti  Ti1594  1  0.11904764  0.88095236  0.27407407  1
  Ti  Ti1595  1  0.11904764  0.95238093  0.27407407  1
  Ti  Ti1596  1  0.19047621  0.02380950  0.27407407  1
  Ti  Ti1597  1  0.19047621  0.09523807  0.27407407  1
  Ti  Ti1598  1  0.19047621  0.16666664  0.27407407  1
  Ti  Ti1599  1  0.19047621  0.23809521  0.27407407  1
  Ti  Ti1600  1  0.19047621  0.30952379  0.27407407  1
  Ti  Ti1601  1  0.19047621  0.38095236  0.27407407  1
  Ti  Ti1602  1  0.19047621  0.45238093  0.27407407  1
  Ti  Ti1603  1  0.19047621  0.52380950  0.27407407  1
  Ti  Ti1604  1  0.19047621  0.59523807  0.27407407  1
  Ti  Ti1605  1  0.19047621  0.66666664  0.27407407  1
  Ti  Ti1606  1  0.19047621  0.73809521  0.27407407  1
  Ti  Ti1607  1  0.19047621  0.80952379  0.27407407  1
  Ti  Ti1608  1  0.19047621  0.88095236  0.27407407  1
  Ti  Ti1609  1  0.19047621  0.95238093  0.27407407  1
  Ti  Ti1610  1  0.26190479  0.02380950  0.27407407  1
  Ti  Ti1611  1  0.26190479  0.09523807  0.27407407  1
  Ti  Ti1612  1  0.26190479  0.16666664  0.27407407  1
  Ti  Ti1613  1  0.26190479  0.23809521  0.27407407  1
  Ti  Ti1614  1  0.26190479  0.30952379  0.27407407  1
  Ti  Ti1615  1  0.26190479  0.38095236  0.27407407  1
  Ti  Ti1616  1  0.26190479  0.45238093  0.27407407  1
  Ti  Ti1617  1  0.26190479  0.52380950  0.27407407  1
  Ti  Ti1618  1  0.26190479  0.59523807  0.27407407  1
  Ti  Ti1619  1  0.26190479  0.66666664  0.27407407  1
  Ti  Ti1620  1  0.26190479  0.73809521  0.27407407  1
  Ti  Ti1621  1  0.26190479  0.80952379  0.27407407  1
  Ti  Ti1622  1  0.26190479  0.88095236  0.27407407  1
  Ti  Ti1623  1  0.26190479  0.95238093  0.27407407  1
  Ti  Ti1624  1  0.33333336  0.02380950  0.27407407  1
  Ti  Ti1625  1  0.33333336  0.09523807  0.27407407  1
  Ti  Ti1626  1  0.33333336  0.16666664  0.27407407  1
  Ti  Ti1627  1  0.33333336  0.23809521  0.27407407  1
  Ti  Ti1628  1  0.33333336  0.30952379  0.27407407  1
  Ti  Ti1629  1  0.33333336  0.38095236  0.27407407  1
  Ti  Ti1630  1  0.33333336  0.45238093  0.27407407  1
  Ti  Ti1631  1  0.33333336  0.52380950  0.27407407  1
  Ti  Ti1632  1  0.33333336  0.59523807  0.27407407  1
  Ti  Ti1633  1  0.33333336  0.66666664  0.27407407  1
  Ti  Ti1634  1  0.33333336  0.73809521  0.27407407  1
  Ti  Ti1635  1  0.33333336  0.80952379  0.27407407  1
  Ti  Ti1636  1  0.33333336  0.88095236  0.27407407  1
  Ti  Ti1637  1  0.33333336  0.95238093  0.27407407  1
  Ti  Ti1638  1  0.40476193  0.02380950  0.27407407  1
  Ti  Ti1639  1  0.40476193  0.09523807  0.27407407  1
  Ti  Ti1640  1  0.40476193  0.16666664  0.27407407  1
  Ti  Ti1641  1  0.40476193  0.23809521  0.27407407  1
  Ti  Ti1642  1  0.40476193  0.30952379  0.27407407  1
  Ti  Ti1643  1  0.40476193  0.38095236  0.27407407  1
  Ti  Ti1644  1  0.40476193  0.45238093  0.27407407  1
  Ti  Ti1645  1  0.40476193  0.52380950  0.27407407  1
  Ti  Ti1646  1  0.40476193  0.59523807  0.27407407  1
  Ti  Ti1647  1  0.40476193  0.66666664  0.27407407  1
  Ti  Ti1648  1  0.40476193  0.73809521  0.27407407  1
  Ti  Ti1649  1  0.40476193  0.80952379  0.27407407  1
  Ti  Ti1650  1  0.40476193  0.88095236  0.27407407  1
  Ti  Ti1651  1  0.40476193  0.95238093  0.27407407  1
  Ti  Ti1652  1  0.47619050  0.02380950  0.27407407  1
  Ti  Ti1653  1  0.47619050  0.09523807  0.27407407  1
  Ti  Ti1654  1  0.47619050  0.16666664  0.27407407  1
  Ti  Ti1655  1  0.47619050  0.23809521  0.27407407  1
  Ti  Ti1656  1  0.47619050  0.30952379  0.27407407  1
  Ti  Ti1657  1  0.47619050  0.38095236  0.27407407  1
  Ti  Ti1658  1  0.47619050  0.45238093  0.27407407  1
  Ti  Ti1659  1  0.47619050  0.52380950  0.27407407  1
  Ti  Ti1660  1  0.47619050  0.59523807  0.27407407  1
  Ti  Ti1661  1  0.47619050  0.66666664  0.27407407  1
  Ti  Ti1662  1  0.47619050  0.73809521  0.27407407  1
  Ti  Ti1663  1  0.47619050  0.80952379  0.27407407  1
  Ti  Ti1664  1  0.47619050  0.88095236  0.27407407  1
  Ti  Ti1665  1  0.47619050  0.95238093  0.27407407  1
  Ti  Ti1666  1  0.54761907  0.02380950  0.27407407  1
  Ti  Ti1667  1  0.54761907  0.09523807  0.27407407  1
  Ti  Ti1668  1  0.54761907  0.16666664  0.27407407  1
  Ti  Ti1669  1  0.54761907  0.23809521  0.27407407  1
  Ti  Ti1670  1  0.54761907  0.30952379  0.27407407  1
  Ti  Ti1671  1  0.54761907  0.38095236  0.27407407  1
  Ti  Ti1672  1  0.54761907  0.45238093  0.27407407  1
  Ti  Ti1673  1  0.54761907  0.52380950  0.27407407  1
  Ti  Ti1674  1  0.54761907  0.59523807  0.27407407  1
  Ti  Ti1675  1  0.54761907  0.66666664  0.27407407  1
  Ti  Ti1676  1  0.54761907  0.73809521  0.27407407  1
  Ti  Ti1677  1  0.54761907  0.80952379  0.27407407  1
  Ti  Ti1678  1  0.54761907  0.88095236  0.27407407  1
  Ti  Ti1679  1  0.54761907  0.95238093  0.27407407  1
  Ti  Ti1680  1  0.61904764  0.02380950  0.27407407  1
  Ti  Ti1681  1  0.61904764  0.09523807  0.27407407  1
  Ti  Ti1682  1  0.61904764  0.16666664  0.27407407  1
  Ti  Ti1683  1  0.61904764  0.23809521  0.27407407  1
  Ti  Ti1684  1  0.61904764  0.30952379  0.27407407  1
  Ti  Ti1685  1  0.61904764  0.38095236  0.27407407  1
  Ti  Ti1686  1  0.61904764  0.45238093  0.27407407  1
  Ti  Ti1687  1  0.61904764  0.52380950  0.27407407  1
  Ti  Ti1688  1  0.61904764  0.59523807  0.27407407  1
  Ti  Ti1689  1  0.61904764  0.66666664  0.27407407  1
  Ti  Ti1690  1  0.61904764  0.73809521  0.27407407  1
  Ti  Ti1691  1  0.61904764  0.80952379  0.27407407  1
  Ti  Ti1692  1  0.61904764  0.88095236  0.27407407  1
  Ti  Ti1693  1  0.61904764  0.95238093  0.27407407  1
  Ti  Ti1694  1  0.69047621  0.02380950  0.27407407  1
  Ti  Ti1695  1  0.69047621  0.09523807  0.27407407  1
  Ti  Ti1696  1  0.69047621  0.16666664  0.27407407  1
  Ti  Ti1697  1  0.69047621  0.23809521  0.27407407  1
  Ti  Ti1698  1  0.69047621  0.30952379  0.27407407  1
  Ti  Ti1699  1  0.69047621  0.38095236  0.27407407  1
  Ti  Ti1700  1  0.69047621  0.45238093  0.27407407  1
  Ti  Ti1701  1  0.69047621  0.52380950  0.27407407  1
  Ti  Ti1702  1  0.69047621  0.59523807  0.27407407  1
  Ti  Ti1703  1  0.69047621  0.66666664  0.27407407  1
  Ti  Ti1704  1  0.69047621  0.73809521  0.27407407  1
  Ti  Ti1705  1  0.69047621  0.80952379  0.27407407  1
  Ti  Ti1706  1  0.69047621  0.88095236  0.27407407  1
  Ti  Ti1707  1  0.69047621  0.95238093  0.27407407  1
  Ti  Ti1708  1  0.76190479  0.02380950  0.27407407  1
  Ti  Ti1709  1  0.76190479  0.09523807  0.27407407  1
  Ti  Ti1710  1  0.76190479  0.16666664  0.27407407  1
  Ti  Ti1711  1  0.76190479  0.23809521  0.27407407  1
  Ti  Ti1712  1  0.76190479  0.30952379  0.27407407  1
  Ti  Ti1713  1  0.76190479  0.38095236  0.27407407  1
  Ti  Ti1714  1  0.76190479  0.45238093  0.27407407  1
  Ti  Ti1715  1  0.76190479  0.52380950  0.27407407  1
  Ti  Ti1716  1  0.76190479  0.59523807  0.27407407  1
  Ti  Ti1717  1  0.76190479  0.66666664  0.27407407  1
  Ti  Ti1718  1  0.76190479  0.73809521  0.27407407  1
  Ti  Ti1719  1  0.76190479  0.80952379  0.27407407  1
  Ti  Ti1720  1  0.76190479  0.88095236  0.27407407  1
  Ti  Ti1721  1  0.76190479  0.95238093  0.27407407  1
  Ti  Ti1722  1  0.83333336  0.02380950  0.27407407  1
  Ti  Ti1723  1  0.83333336  0.09523807  0.27407407  1
  Ti  Ti1724  1  0.83333336  0.16666664  0.27407407  1
  Ti  Ti1725  1  0.83333336  0.23809521  0.27407407  1
  Ti  Ti1726  1  0.83333336  0.30952379  0.27407407  1
  Ti  Ti1727  1  0.83333336  0.38095236  0.27407407  1
  Ti  Ti1728  1  0.83333336  0.45238093  0.27407407  1
  Ti  Ti1729  1  0.83333336  0.52380950  0.27407407  1
  Ti  Ti1730  1  0.83333336  0.59523807  0.27407407  1
  Ti  Ti1731  1  0.83333336  0.66666664  0.27407407  1
  Ti  Ti1732  1  0.83333336  0.73809521  0.27407407  1
  Ti  Ti1733  1  0.83333336  0.80952379  0.27407407  1
  Ti  Ti1734  1  0.83333336  0.88095236  0.27407407  1
  Ti  Ti1735  1  0.83333336  0.95238093  0.27407407  1
  Ti  Ti1736  1  0.90476193  0.02380950  0.27407407  1
  Ti  Ti1737  1  0.90476193  0.09523807  0.27407407  1
  Ti  Ti1738  1  0.90476193  0.16666664  0.27407407  1
  Ti  Ti1739  1  0.90476193  0.23809521  0.27407407  1
  Ti  Ti1740  1  0.90476193  0.30952379  0.27407407  1
  Ti  Ti1741  1  0.90476193  0.38095236  0.27407407  1
  Ti  Ti1742  1  0.90476193  0.45238093  0.27407407  1
  Ti  Ti1743  1  0.90476193  0.52380950  0.27407407  1
  Ti  Ti1744  1  0.90476193  0.59523807  0.27407407  1
  Ti  Ti1745  1  0.90476193  0.66666664  0.27407407  1
  Ti  Ti1746  1  0.90476193  0.73809521  0.27407407  1
  Ti  Ti1747  1  0.90476193  0.80952379  0.27407407  1
  Ti  Ti1748  1  0.90476193  0.88095236  0.27407407  1
  Ti  Ti1749  1  0.90476193  0.95238093  0.27407407  1
  Ti  Ti1750  1  0.97619050  0.02380950  0.27407407  1
  Ti  Ti1751  1  0.97619050  0.09523807  0.27407407  1
  Ti  Ti1752  1  0.97619050  0.16666664  0.27407407  1
  Ti  Ti1753  1  0.97619050  0.23809521  0.27407407  1
  Ti  Ti1754  1  0.97619050  0.30952379  0.27407407  1
  Ti  Ti1755  1  0.97619050  0.38095236  0.27407407  1
  Ti  Ti1756  1  0.97619050  0.45238093  0.27407407  1
  Ti  Ti1757  1  0.97619050  0.52380950  0.27407407  1
  Ti  Ti1758  1  0.97619050  0.59523807  0.27407407  1
  Ti  Ti1759  1  0.97619050  0.66666664  0.27407407  1
  Ti  Ti1760  1  0.97619050  0.73809521  0.27407407  1
  Ti  Ti1761  1  0.97619050  0.80952379  0.27407407  1
  Ti  Ti1762  1  0.97619050  0.88095236  0.27407407  1
  Ti  Ti1763  1  0.97619050  0.95238093  0.27407407  1
  Ti  Ti1764  1  0.00000000  0.00000000  0.30740741  1
  Ti  Ti1765  1  0.00000000  0.07142857  0.30740741  1
  Ti  Ti1766  1  0.00000000  0.14285714  0.30740741  1
  Ti  Ti1767  1  0.00000000  0.21428571  0.30740741  1
  Ti  Ti1768  1  0.00000000  0.28571429  0.30740741  1
  Ti  Ti1769  1  0.00000000  0.35714286  0.30740741  1
  Ti  Ti1770  1  0.00000000  0.42857143  0.30740741  1
  Ti  Ti1771  1  0.00000000  0.50000000  0.30740741  1
  Ti  Ti1772  1  0.00000000  0.57142857  0.30740741  1
  Ti  Ti1773  1  0.00000000  0.64285714  0.30740741  1
  Ti  Ti1774  1  0.00000000  0.71428571  0.30740741  1
  Ti  Ti1775  1  1.00000000  0.78571429  0.30740741  1
  Ti  Ti1776  1  0.00000000  0.85714286  0.30740741  1
  Ti  Ti1777  1  0.00000000  0.92857143  0.30740741  1
  Ti  Ti1778  1  0.07142857  0.00000000  0.30740741  1
  Ti  Ti1779  1  0.07142857  0.07142857  0.30740741  1
  Ti  Ti1780  1  0.07142857  0.14285714  0.30740741  1
  Ti  Ti1781  1  0.07142857  0.21428571  0.30740741  1
  Ti  Ti1782  1  0.07142857  0.28571429  0.30740741  1
  Ti  Ti1783  1  0.07142857  0.35714286  0.30740741  1
  Ti  Ti1784  1  0.07142857  0.42857143  0.30740741  1
  Ti  Ti1785  1  0.07142857  0.50000000  0.30740741  1
  Ti  Ti1786  1  0.07142857  0.57142857  0.30740741  1
  Ti  Ti1787  1  0.07142857  0.64285714  0.30740741  1
  Ti  Ti1788  1  0.07142857  0.71428571  0.30740741  1
  Ti  Ti1789  1  0.07142857  0.78571429  0.30740741  1
  Ti  Ti1790  1  0.07142857  0.85714286  0.30740741  1
  Ti  Ti1791  1  0.07142857  0.92857143  0.30740741  1
  Ti  Ti1792  1  0.14285714  0.00000000  0.30740741  1
  Ti  Ti1793  1  0.14285714  0.07142857  0.30740741  1
  Ti  Ti1794  1  0.14285714  0.14285714  0.30740741  1
  Ti  Ti1795  1  0.14285714  0.21428571  0.30740741  1
  Ti  Ti1796  1  0.14285714  0.28571429  0.30740741  1
  Ti  Ti1797  1  0.14285714  0.35714286  0.30740741  1
  Ti  Ti1798  1  0.14285714  0.42857143  0.30740741  1
  Ti  Ti1799  1  0.14285714  0.50000000  0.30740741  1
  Ti  Ti1800  1  0.14285714  0.57142857  0.30740741  1
  Ti  Ti1801  1  0.14285714  0.64285714  0.30740741  1
  Ti  Ti1802  1  0.14285714  0.71428571  0.30740741  1
  Ti  Ti1803  1  0.14285714  0.78571429  0.30740741  1
  Ti  Ti1804  1  0.14285714  0.85714286  0.30740741  1
  Ti  Ti1805  1  0.14285714  0.92857143  0.30740741  1
  Ti  Ti1806  1  0.21428571  0.00000000  0.30740741  1
  Ti  Ti1807  1  0.21428571  0.07142857  0.30740741  1
  Ti  Ti1808  1  0.21428571  0.14285714  0.30740741  1
  Ti  Ti1809  1  0.21428571  0.21428571  0.30740741  1
  Ti  Ti1810  1  0.21428571  0.28571429  0.30740741  1
  Ti  Ti1811  1  0.21428571  0.35714286  0.30740741  1
  Ti  Ti1812  1  0.21428571  0.42857143  0.30740741  1
  Ti  Ti1813  1  0.21428571  0.50000000  0.30740741  1
  Ti  Ti1814  1  0.21428571  0.57142857  0.30740741  1
  Ti  Ti1815  1  0.21428571  0.64285714  0.30740741  1
  Ti  Ti1816  1  0.21428571  0.71428571  0.30740741  1
  Ti  Ti1817  1  0.21428571  0.78571429  0.30740741  1
  Ti  Ti1818  1  0.21428571  0.85714286  0.30740741  1
  Ti  Ti1819  1  0.21428571  0.92857143  0.30740741  1
  Ti  Ti1820  1  0.28571429  0.00000000  0.30740741  1
  Ti  Ti1821  1  0.28571429  0.07142857  0.30740741  1
  Ti  Ti1822  1  0.28571429  0.14285714  0.30740741  1
  Ti  Ti1823  1  0.28571429  0.21428571  0.30740741  1
  Ti  Ti1824  1  0.28571429  0.28571429  0.30740741  1
  Ti  Ti1825  1  0.28571429  0.35714286  0.30740741  1
  Ti  Ti1826  1  0.28571429  0.42857143  0.30740741  1
  Ti  Ti1827  1  0.28571429  0.50000000  0.30740741  1
  Ti  Ti1828  1  0.28571429  0.57142857  0.30740741  1
  Ti  Ti1829  1  0.28571429  0.64285714  0.30740741  1
  Ti  Ti1830  1  0.28571429  0.71428571  0.30740741  1
  Ti  Ti1831  1  0.28571429  0.78571429  0.30740741  1
  Ti  Ti1832  1  0.28571429  0.85714286  0.30740741  1
  Ti  Ti1833  1  0.28571429  0.92857143  0.30740741  1
  Ti  Ti1834  1  0.35714286  0.00000000  0.30740741  1
  Ti  Ti1835  1  0.35714286  0.07142857  0.30740741  1
  Ti  Ti1836  1  0.35714286  0.14285714  0.30740741  1
  Ti  Ti1837  1  0.35714286  0.21428571  0.30740741  1
  Ti  Ti1838  1  0.35714286  0.28571429  0.30740741  1
  Ti  Ti1839  1  0.35714286  0.35714286  0.30740741  1
  Ti  Ti1840  1  0.35714286  0.42857143  0.30740741  1
  Ti  Ti1841  1  0.35714286  0.50000000  0.30740741  1
  Ti  Ti1842  1  0.35714286  0.57142857  0.30740741  1
  Ti  Ti1843  1  0.35714286  0.64285714  0.30740741  1
  Ti  Ti1844  1  0.35714286  0.71428571  0.30740741  1
  Ti  Ti1845  1  0.35714286  0.78571429  0.30740741  1
  Ti  Ti1846  1  0.35714286  0.85714286  0.30740741  1
  Ti  Ti1847  1  0.35714286  0.92857143  0.30740741  1
  Ti  Ti1848  1  0.42857143  0.00000000  0.30740741  1
  Ti  Ti1849  1  0.42857143  0.07142857  0.30740741  1
  Ti  Ti1850  1  0.42857143  0.14285714  0.30740741  1
  Ti  Ti1851  1  0.42857143  0.21428571  0.30740741  1
  Ti  Ti1852  1  0.42857143  0.28571429  0.30740741  1
  Ti  Ti1853  1  0.42857143  0.35714286  0.30740741  1
  Ti  Ti1854  1  0.42857143  0.42857143  0.30740741  1
  Ti  Ti1855  1  0.42857143  0.50000000  0.30740741  1
  Ti  Ti1856  1  0.42857143  0.57142857  0.30740741  1
  Ti  Ti1857  1  0.42857143  0.64285714  0.30740741  1
  Ti  Ti1858  1  0.42857143  0.71428571  0.30740741  1
  Ti  Ti1859  1  0.42857143  0.78571429  0.30740741  1
  Ti  Ti1860  1  0.42857143  0.85714286  0.30740741  1
  Ti  Ti1861  1  0.42857143  0.92857143  0.30740741  1
  Ti  Ti1862  1  0.50000000  0.00000000  0.30740741  1
  Ti  Ti1863  1  0.50000000  0.07142857  0.30740741  1
  Ti  Ti1864  1  0.50000000  0.14285714  0.30740741  1
  Ti  Ti1865  1  0.50000000  0.21428571  0.30740741  1
  Ti  Ti1866  1  0.50000000  0.28571429  0.30740741  1
  Ti  Ti1867  1  0.50000000  0.35714286  0.30740741  1
  Ti  Ti1868  1  0.50000000  0.42857143  0.30740741  1
  Ti  Ti1869  1  0.50000000  0.50000000  0.30740741  1
  Ti  Ti1870  1  0.50000000  0.57142857  0.30740741  1
  Ti  Ti1871  1  0.50000000  0.64285714  0.30740741  1
  Ti  Ti1872  1  0.50000000  0.71428571  0.30740741  1
  Ti  Ti1873  1  0.50000000  0.78571429  0.30740741  1
  Ti  Ti1874  1  0.50000000  0.85714286  0.30740741  1
  Ti  Ti1875  1  0.50000000  0.92857143  0.30740741  1
  Ti  Ti1876  1  0.57142857  0.00000000  0.30740741  1
  Ti  Ti1877  1  0.57142857  0.07142857  0.30740741  1
  Ti  Ti1878  1  0.57142857  0.14285714  0.30740741  1
  Ti  Ti1879  1  0.57142857  0.21428571  0.30740741  1
  Ti  Ti1880  1  0.57142857  0.28571429  0.30740741  1
  Ti  Ti1881  1  0.57142857  0.35714286  0.30740741  1
  Ti  Ti1882  1  0.57142857  0.42857143  0.30740741  1
  Ti  Ti1883  1  0.57142857  0.50000000  0.30740741  1
  Ti  Ti1884  1  0.57142857  0.57142857  0.30740741  1
  Ti  Ti1885  1  0.57142857  0.64285714  0.30740741  1
  Ti  Ti1886  1  0.57142857  0.71428571  0.30740741  1
  Ti  Ti1887  1  0.57142857  0.78571429  0.30740741  1
  Ti  Ti1888  1  0.57142857  0.85714286  0.30740741  1
  Ti  Ti1889  1  0.57142857  0.92857143  0.30740741  1
  Ti  Ti1890  1  0.64285714  0.00000000  0.30740741  1
  Ti  Ti1891  1  0.64285714  0.07142857  0.30740741  1
  Ti  Ti1892  1  0.64285714  0.14285714  0.30740741  1
  Ti  Ti1893  1  0.64285714  0.21428571  0.30740741  1
  Ti  Ti1894  1  0.64285714  0.28571429  0.30740741  1
  Ti  Ti1895  1  0.64285714  0.35714286  0.30740741  1
  Ti  Ti1896  1  0.64285714  0.42857143  0.30740741  1
  Ti  Ti1897  1  0.64285714  0.50000000  0.30740741  1
  Ti  Ti1898  1  0.64285714  0.57142857  0.30740741  1
  Ti  Ti1899  1  0.64285714  0.64285714  0.30740741  1
  Ti  Ti1900  1  0.64285714  0.71428571  0.30740741  1
  Ti  Ti1901  1  0.64285714  0.78571429  0.30740741  1
  Ti  Ti1902  1  0.64285714  0.85714286  0.30740741  1
  Ti  Ti1903  1  0.64285714  0.92857143  0.30740741  1
  Ti  Ti1904  1  0.71428571  0.00000000  0.30740741  1
  Ti  Ti1905  1  0.71428571  0.07142857  0.30740741  1
  Ti  Ti1906  1  0.71428571  0.14285714  0.30740741  1
  Ti  Ti1907  1  0.71428571  0.21428571  0.30740741  1
  Ti  Ti1908  1  0.71428571  0.28571429  0.30740741  1
  Ti  Ti1909  1  0.71428571  0.35714286  0.30740741  1
  Ti  Ti1910  1  0.71428571  0.42857143  0.30740741  1
  Ti  Ti1911  1  0.71428571  0.50000000  0.30740741  1
  Ti  Ti1912  1  0.71428571  0.57142857  0.30740741  1
  Ti  Ti1913  1  0.71428571  0.64285714  0.30740741  1
  Ti  Ti1914  1  0.71428571  0.71428571  0.30740741  1
  Ti  Ti1915  1  0.71428571  0.78571429  0.30740741  1
  Ti  Ti1916  1  0.71428571  0.85714286  0.30740741  1
  Ti  Ti1917  1  0.71428571  0.92857143  0.30740741  1
  Ti  Ti1918  1  0.78571429  0.00000000  0.30740741  1
  Ti  Ti1919  1  0.78571429  0.07142857  0.30740741  1
  Ti  Ti1920  1  0.78571429  0.14285714  0.30740741  1
  Ti  Ti1921  1  0.78571429  0.21428571  0.30740741  1
  Ti  Ti1922  1  0.78571429  0.28571429  0.30740741  1
  Ti  Ti1923  1  0.78571429  0.35714286  0.30740741  1
  Ti  Ti1924  1  0.78571429  0.42857143  0.30740741  1
  Ti  Ti1925  1  0.78571429  0.50000000  0.30740741  1
  Ti  Ti1926  1  0.78571429  0.57142857  0.30740741  1
  Ti  Ti1927  1  0.78571429  0.64285714  0.30740741  1
  Ti  Ti1928  1  0.78571429  0.71428571  0.30740741  1
  Ti  Ti1929  1  0.78571429  0.78571429  0.30740741  1
  Ti  Ti1930  1  0.78571429  0.85714286  0.30740741  1
  Ti  Ti1931  1  0.78571429  0.92857143  0.30740741  1
  Ti  Ti1932  1  0.85714286  0.00000000  0.30740741  1
  Ti  Ti1933  1  0.85714286  0.07142857  0.30740741  1
  Ti  Ti1934  1  0.85714286  0.14285714  0.30740741  1
  Ti  Ti1935  1  0.85714286  0.21428571  0.30740741  1
  Ti  Ti1936  1  0.85714286  0.28571429  0.30740741  1
  Ti  Ti1937  1  0.85714286  0.35714286  0.30740741  1
  Ti  Ti1938  1  0.85714286  0.42857143  0.30740741  1
  Ti  Ti1939  1  0.85714286  0.50000000  0.30740741  1
  Ti  Ti1940  1  0.85714286  0.57142857  0.30740741  1
  Ti  Ti1941  1  0.85714286  0.64285714  0.30740741  1
  Ti  Ti1942  1  0.85714286  0.71428571  0.30740741  1
  Ti  Ti1943  1  0.85714286  0.78571429  0.30740741  1
  Ti  Ti1944  1  0.85714286  0.85714286  0.30740741  1
  Ti  Ti1945  1  0.85714286  0.92857143  0.30740741  1
  Ti  Ti1946  1  0.92857143  0.00000000  0.30740741  1
  Ti  Ti1947  1  0.92857143  0.07142857  0.30740741  1
  Ti  Ti1948  1  0.92857143  0.14285714  0.30740741  1
  Ti  Ti1949  1  0.92857143  0.21428571  0.30740741  1
  Ti  Ti1950  1  0.92857143  0.28571429  0.30740741  1
  Ti  Ti1951  1  0.92857143  0.35714286  0.30740741  1
  Ti  Ti1952  1  0.92857143  0.42857143  0.30740741  1
  Ti  Ti1953  1  0.92857143  0.50000000  0.30740741  1
  Ti  Ti1954  1  0.92857143  0.57142857  0.30740741  1
  Ti  Ti1955  1  0.92857143  0.64285714  0.30740741  1
  Ti  Ti1956  1  0.92857143  0.71428571  0.30740741  1
  Ti  Ti1957  1  0.92857143  0.78571429  0.30740741  1
  Ti  Ti1958  1  0.92857143  0.85714286  0.30740741  1
  Ti  Ti1959  1  0.92857143  0.92857143  0.30740741  1
  Ti  Ti1960  1  0.02380950  0.04761907  0.29629630  1
  Ti  Ti1961  1  0.02380950  0.11904764  0.29629630  1
  Ti  Ti1962  1  0.02380950  0.19047621  0.29629630  1
  Ti  Ti1963  1  0.02380950  0.26190479  0.29629630  1
  Ti  Ti1964  1  0.02380950  0.33333336  0.29629630  1
  Ti  Ti1965  1  0.02380950  0.40476193  0.29629630  1
  Ti  Ti1966  1  0.02380950  0.47619050  0.29629630  1
  Ti  Ti1967  1  0.02380950  0.54761907  0.29629630  1
  Ti  Ti1968  1  0.02380950  0.61904764  0.29629630  1
  Ti  Ti1969  1  0.02380950  0.69047621  0.29629630  1
  Ti  Ti1970  1  0.02380950  0.76190479  0.29629630  1
  Ti  Ti1971  1  0.02380950  0.83333336  0.29629630  1
  Ti  Ti1972  1  0.02380950  0.90476193  0.29629630  1
  Ti  Ti1973  1  0.02380950  0.97619050  0.29629630  1
  Ti  Ti1974  1  0.09523807  0.04761907  0.29629630  1
  Ti  Ti1975  1  0.09523807  0.11904764  0.29629630  1
  Ti  Ti1976  1  0.09523807  0.19047621  0.29629630  1
  Ti  Ti1977  1  0.09523807  0.26190479  0.29629630  1
  Ti  Ti1978  1  0.09523807  0.33333336  0.29629630  1
  Ti  Ti1979  1  0.09523807  0.40476193  0.29629630  1
  Ti  Ti1980  1  0.09523807  0.47619050  0.29629630  1
  Ti  Ti1981  1  0.09523807  0.54761907  0.29629630  1
  Ti  Ti1982  1  0.09523807  0.61904764  0.29629630  1
  Ti  Ti1983  1  0.09523807  0.69047621  0.29629630  1
  Ti  Ti1984  1  0.09523807  0.76190479  0.29629630  1
  Ti  Ti1985  1  0.09523807  0.83333336  0.29629630  1
  Ti  Ti1986  1  0.09523807  0.90476193  0.29629630  1
  Ti  Ti1987  1  0.09523807  0.97619050  0.29629630  1
  Ti  Ti1988  1  0.16666664  0.04761907  0.29629630  1
  Ti  Ti1989  1  0.16666664  0.11904764  0.29629630  1
  Ti  Ti1990  1  0.16666664  0.19047621  0.29629630  1
  Ti  Ti1991  1  0.16666664  0.26190479  0.29629630  1
  Ti  Ti1992  1  0.16666664  0.33333336  0.29629630  1
  Ti  Ti1993  1  0.16666664  0.40476193  0.29629630  1
  Ti  Ti1994  1  0.16666664  0.47619050  0.29629630  1
  Ti  Ti1995  1  0.16666664  0.54761907  0.29629630  1
  Ti  Ti1996  1  0.16666664  0.61904764  0.29629630  1
  Ti  Ti1997  1  0.16666664  0.69047621  0.29629630  1
  Ti  Ti1998  1  0.16666664  0.76190479  0.29629630  1
  Ti  Ti1999  1  0.16666664  0.83333336  0.29629630  1
  Ti  Ti2000  1  0.16666664  0.90476193  0.29629630  1
  Ti  Ti2001  1  0.16666664  0.97619050  0.29629630  1
  Ti  Ti2002  1  0.23809521  0.04761907  0.29629630  1
  Ti  Ti2003  1  0.23809521  0.11904764  0.29629630  1
  Ti  Ti2004  1  0.23809521  0.19047621  0.29629630  1
  Ti  Ti2005  1  0.23809521  0.26190479  0.29629630  1
  Ti  Ti2006  1  0.23809521  0.33333336  0.29629630  1
  Ti  Ti2007  1  0.23809521  0.40476193  0.29629630  1
  Ti  Ti2008  1  0.23809521  0.47619050  0.29629630  1
  Ti  Ti2009  1  0.23809521  0.54761907  0.29629630  1
  Ti  Ti2010  1  0.23809521  0.61904764  0.29629630  1
  Ti  Ti2011  1  0.23809521  0.69047621  0.29629630  1
  Ti  Ti2012  1  0.23809521  0.76190479  0.29629630  1
  Ti  Ti2013  1  0.23809521  0.83333336  0.29629630  1
  Ti  Ti2014  1  0.23809521  0.90476193  0.29629630  1
  Ti  Ti2015  1  0.23809521  0.97619050  0.29629630  1
  Ti  Ti2016  1  0.30952379  0.04761907  0.29629630  1
  Ti  Ti2017  1  0.30952379  0.11904764  0.29629630  1
  Ti  Ti2018  1  0.30952379  0.19047621  0.29629630  1
  Ti  Ti2019  1  0.30952379  0.26190479  0.29629630  1
  Ti  Ti2020  1  0.30952379  0.33333336  0.29629630  1
  Ti  Ti2021  1  0.30952379  0.40476193  0.29629630  1
  Ti  Ti2022  1  0.30952379  0.47619050  0.29629630  1
  Ti  Ti2023  1  0.30952379  0.54761907  0.29629630  1
  Ti  Ti2024  1  0.30952379  0.61904764  0.29629630  1
  Ti  Ti2025  1  0.30952379  0.69047621  0.29629630  1
  Ti  Ti2026  1  0.30952379  0.76190479  0.29629630  1
  Ti  Ti2027  1  0.30952379  0.83333336  0.29629630  1
  Ti  Ti2028  1  0.30952379  0.90476193  0.29629630  1
  Ti  Ti2029  1  0.30952379  0.97619050  0.29629630  1
  Ti  Ti2030  1  0.38095236  0.04761907  0.29629630  1
  Ti  Ti2031  1  0.38095236  0.11904764  0.29629630  1
  Ti  Ti2032  1  0.38095236  0.19047621  0.29629630  1
  Ti  Ti2033  1  0.38095236  0.26190479  0.29629630  1
  Ti  Ti2034  1  0.38095236  0.33333336  0.29629630  1
  Ti  Ti2035  1  0.38095236  0.40476193  0.29629630  1
  Ti  Ti2036  1  0.38095236  0.47619050  0.29629630  1
  Ti  Ti2037  1  0.38095236  0.54761907  0.29629630  1
  Ti  Ti2038  1  0.38095236  0.61904764  0.29629630  1
  Ti  Ti2039  1  0.38095236  0.69047621  0.29629630  1
  Ti  Ti2040  1  0.38095236  0.76190479  0.29629630  1
  Ti  Ti2041  1  0.38095236  0.83333336  0.29629630  1
  Ti  Ti2042  1  0.38095236  0.90476193  0.29629630  1
  Ti  Ti2043  1  0.38095236  0.97619050  0.29629630  1
  Ti  Ti2044  1  0.45238093  0.04761907  0.29629630  1
  Ti  Ti2045  1  0.45238093  0.11904764  0.29629630  1
  Ti  Ti2046  1  0.45238093  0.19047621  0.29629630  1
  Ti  Ti2047  1  0.45238093  0.26190479  0.29629630  1
  Ti  Ti2048  1  0.45238093  0.33333336  0.29629630  1
  Ti  Ti2049  1  0.45238093  0.40476193  0.29629630  1
  Ti  Ti2050  1  0.45238093  0.47619050  0.29629630  1
  Ti  Ti2051  1  0.45238093  0.54761907  0.29629630  1
  Ti  Ti2052  1  0.45238093  0.61904764  0.29629630  1
  Ti  Ti2053  1  0.45238093  0.69047621  0.29629630  1
  Ti  Ti2054  1  0.45238093  0.76190479  0.29629630  1
  Ti  Ti2055  1  0.45238093  0.83333336  0.29629630  1
  Ti  Ti2056  1  0.45238093  0.90476193  0.29629630  1
  Ti  Ti2057  1  0.45238093  0.97619050  0.29629630  1
  Ti  Ti2058  1  0.52380950  0.04761907  0.29629630  1
  Ti  Ti2059  1  0.52380950  0.11904764  0.29629630  1
  Ti  Ti2060  1  0.52380950  0.19047621  0.29629630  1
  Ti  Ti2061  1  0.52380950  0.26190479  0.29629630  1
  Ti  Ti2062  1  0.52380950  0.33333336  0.29629630  1
  Ti  Ti2063  1  0.52380950  0.40476193  0.29629630  1
  Ti  Ti2064  1  0.52380950  0.47619050  0.29629630  1
  Ti  Ti2065  1  0.52380950  0.54761907  0.29629630  1
  Ti  Ti2066  1  0.52380950  0.61904764  0.29629630  1
  Ti  Ti2067  1  0.52380950  0.69047621  0.29629630  1
  Ti  Ti2068  1  0.52380950  0.76190479  0.29629630  1
  Ti  Ti2069  1  0.52380950  0.83333336  0.29629630  1
  Ti  Ti2070  1  0.52380950  0.90476193  0.29629630  1
  Ti  Ti2071  1  0.52380950  0.97619050  0.29629630  1
  Ti  Ti2072  1  0.59523807  0.04761907  0.29629630  1
  Ti  Ti2073  1  0.59523807  0.11904764  0.29629630  1
  Ti  Ti2074  1  0.59523807  0.19047621  0.29629630  1
  Ti  Ti2075  1  0.59523807  0.26190479  0.29629630  1
  Ti  Ti2076  1  0.59523807  0.33333336  0.29629630  1
  Ti  Ti2077  1  0.59523807  0.40476193  0.29629630  1
  Ti  Ti2078  1  0.59523807  0.47619050  0.29629630  1
  Ti  Ti2079  1  0.59523807  0.54761907  0.29629630  1
  Ti  Ti2080  1  0.59523807  0.61904764  0.29629630  1
  Ti  Ti2081  1  0.59523807  0.69047621  0.29629630  1
  Ti  Ti2082  1  0.59523807  0.76190479  0.29629630  1
  Ti  Ti2083  1  0.59523807  0.83333336  0.29629630  1
  Ti  Ti2084  1  0.59523807  0.90476193  0.29629630  1
  Ti  Ti2085  1  0.59523807  0.97619050  0.29629630  1
  Ti  Ti2086  1  0.66666664  0.04761907  0.29629630  1
  Ti  Ti2087  1  0.66666664  0.11904764  0.29629630  1
  Ti  Ti2088  1  0.66666664  0.19047621  0.29629630  1
  Ti  Ti2089  1  0.66666664  0.26190479  0.29629630  1
  Ti  Ti2090  1  0.66666664  0.33333336  0.29629630  1
  Ti  Ti2091  1  0.66666664  0.40476193  0.29629630  1
  Ti  Ti2092  1  0.66666664  0.47619050  0.29629630  1
  Ti  Ti2093  1  0.66666664  0.54761907  0.29629630  1
  Ti  Ti2094  1  0.66666664  0.61904764  0.29629630  1
  Ti  Ti2095  1  0.66666664  0.69047621  0.29629630  1
  Ti  Ti2096  1  0.66666664  0.76190479  0.29629630  1
  Ti  Ti2097  1  0.66666664  0.83333336  0.29629630  1
  Ti  Ti2098  1  0.66666664  0.90476193  0.29629630  1
  Ti  Ti2099  1  0.66666664  0.97619050  0.29629630  1
  Ti  Ti2100  1  0.73809521  0.04761907  0.29629630  1
  Ti  Ti2101  1  0.73809521  0.11904764  0.29629630  1
  Ti  Ti2102  1  0.73809521  0.19047621  0.29629630  1
  Ti  Ti2103  1  0.73809521  0.26190479  0.29629630  1
  Ti  Ti2104  1  0.73809521  0.33333336  0.29629630  1
  Ti  Ti2105  1  0.73809521  0.40476193  0.29629630  1
  Ti  Ti2106  1  0.73809521  0.47619050  0.29629630  1
  Ti  Ti2107  1  0.73809521  0.54761907  0.29629630  1
  Ti  Ti2108  1  0.73809521  0.61904764  0.29629630  1
  Ti  Ti2109  1  0.73809521  0.69047621  0.29629630  1
  Ti  Ti2110  1  0.73809521  0.76190479  0.29629630  1
  Ti  Ti2111  1  0.73809521  0.83333336  0.29629630  1
  Ti  Ti2112  1  0.73809521  0.90476193  0.29629630  1
  Ti  Ti2113  1  0.73809521  0.97619050  0.29629630  1
  Ti  Ti2114  1  0.80952379  0.04761907  0.29629630  1
  Ti  Ti2115  1  0.80952379  0.11904764  0.29629630  1
  Ti  Ti2116  1  0.80952379  0.19047621  0.29629630  1
  Ti  Ti2117  1  0.80952379  0.26190479  0.29629630  1
  Ti  Ti2118  1  0.80952379  0.33333336  0.29629630  1
  Ti  Ti2119  1  0.80952379  0.40476193  0.29629630  1
  Ti  Ti2120  1  0.80952379  0.47619050  0.29629630  1
  Ti  Ti2121  1  0.80952379  0.54761907  0.29629630  1
  Ti  Ti2122  1  0.80952379  0.61904764  0.29629630  1
  Ti  Ti2123  1  0.80952379  0.69047621  0.29629630  1
  Ti  Ti2124  1  0.80952379  0.76190479  0.29629630  1
  Ti  Ti2125  1  0.80952379  0.83333336  0.29629630  1
  Ti  Ti2126  1  0.80952379  0.90476193  0.29629630  1
  Ti  Ti2127  1  0.80952379  0.97619050  0.29629630  1
  Ti  Ti2128  1  0.88095236  0.04761907  0.29629630  1
  Ti  Ti2129  1  0.88095236  0.11904764  0.29629630  1
  Ti  Ti2130  1  0.88095236  0.19047621  0.29629630  1
  Ti  Ti2131  1  0.88095236  0.26190479  0.29629630  1
  Ti  Ti2132  1  0.88095236  0.33333336  0.29629630  1
  Ti  Ti2133  1  0.88095236  0.40476193  0.29629630  1
  Ti  Ti2134  1  0.88095236  0.47619050  0.29629630  1
  Ti  Ti2135  1  0.88095236  0.54761907  0.29629630  1
  Ti  Ti2136  1  0.88095236  0.61904764  0.29629630  1
  Ti  Ti2137  1  0.88095236  0.69047621  0.29629630  1
  Ti  Ti2138  1  0.88095236  0.76190479  0.29629630  1
  Ti  Ti2139  1  0.88095236  0.83333336  0.29629630  1
  Ti  Ti2140  1  0.88095236  0.90476193  0.29629630  1
  Ti  Ti2141  1  0.88095236  0.97619050  0.29629630  1
  Ti  Ti2142  1  0.95238093  0.04761907  0.29629630  1
  Ti  Ti2143  1  0.95238093  0.11904764  0.29629630  1
  Ti  Ti2144  1  0.95238093  0.19047621  0.29629630  1
  Ti  Ti2145  1  0.95238093  0.26190479  0.29629630  1
  Ti  Ti2146  1  0.95238093  0.33333336  0.29629630  1
  Ti  Ti2147  1  0.95238093  0.40476193  0.29629630  1
  Ti  Ti2148  1  0.95238093  0.47619050  0.29629630  1
  Ti  Ti2149  1  0.95238093  0.54761907  0.29629630  1
  Ti  Ti2150  1  0.95238093  0.61904764  0.29629630  1
  Ti  Ti2151  1  0.95238093  0.69047621  0.29629630  1
  Ti  Ti2152  1  0.95238093  0.76190479  0.29629630  1
  Ti  Ti2153  1  0.95238093  0.83333336  0.29629630  1
  Ti  Ti2154  1  0.95238093  0.90476193  0.29629630  1
  Ti  Ti2155  1  0.95238093  0.97619050  0.29629630  1
  Ti  Ti2156  1  0.04761907  0.02380950  0.29629630  1
  Ti  Ti2157  1  0.04761907  0.09523807  0.29629630  1
  Ti  Ti2158  1  0.04761907  0.16666664  0.29629630  1
  Ti  Ti2159  1  0.04761907  0.23809521  0.29629630  1
  Ti  Ti2160  1  0.04761907  0.30952379  0.29629630  1
  Ti  Ti2161  1  0.04761907  0.38095236  0.29629630  1
  Ti  Ti2162  1  0.04761907  0.45238093  0.29629630  1
  Ti  Ti2163  1  0.04761907  0.52380950  0.29629630  1
  Ti  Ti2164  1  0.04761907  0.59523807  0.29629630  1
  Ti  Ti2165  1  0.04761907  0.66666664  0.29629630  1
  Ti  Ti2166  1  0.04761907  0.73809521  0.29629630  1
  Ti  Ti2167  1  0.04761907  0.80952379  0.29629630  1
  Ti  Ti2168  1  0.04761907  0.88095236  0.29629630  1
  Ti  Ti2169  1  0.04761907  0.95238093  0.29629630  1
  Ti  Ti2170  1  0.11904764  0.02380950  0.29629630  1
  Ti  Ti2171  1  0.11904764  0.09523807  0.29629630  1
  Ti  Ti2172  1  0.11904764  0.16666664  0.29629630  1
  Ti  Ti2173  1  0.11904764  0.23809521  0.29629630  1
  Ti  Ti2174  1  0.11904764  0.30952379  0.29629630  1
  Ti  Ti2175  1  0.11904764  0.38095236  0.29629630  1
  Ti  Ti2176  1  0.11904764  0.45238093  0.29629630  1
  Ti  Ti2177  1  0.11904764  0.52380950  0.29629630  1
  Ti  Ti2178  1  0.11904764  0.59523807  0.29629630  1
  Ti  Ti2179  1  0.11904764  0.66666664  0.29629630  1
  Ti  Ti2180  1  0.11904764  0.73809521  0.29629630  1
  Ti  Ti2181  1  0.11904764  0.80952379  0.29629630  1
  Ti  Ti2182  1  0.11904764  0.88095236  0.29629630  1
  Ti  Ti2183  1  0.11904764  0.95238093  0.29629630  1
  Ti  Ti2184  1  0.19047621  0.02380950  0.29629630  1
  Ti  Ti2185  1  0.19047621  0.09523807  0.29629630  1
  Ti  Ti2186  1  0.19047621  0.16666664  0.29629630  1
  Ti  Ti2187  1  0.19047621  0.23809521  0.29629630  1
  Ti  Ti2188  1  0.19047621  0.30952379  0.29629630  1
  Ti  Ti2189  1  0.19047621  0.38095236  0.29629630  1
  Ti  Ti2190  1  0.19047621  0.45238093  0.29629630  1
  Ti  Ti2191  1  0.19047621  0.52380950  0.29629630  1
  Ti  Ti2192  1  0.19047621  0.59523807  0.29629630  1
  Ti  Ti2193  1  0.19047621  0.66666664  0.29629630  1
  Ti  Ti2194  1  0.19047621  0.73809521  0.29629630  1
  Ti  Ti2195  1  0.19047621  0.80952379  0.29629630  1
  Ti  Ti2196  1  0.19047621  0.88095236  0.29629630  1
  Ti  Ti2197  1  0.19047621  0.95238093  0.29629630  1
  Ti  Ti2198  1  0.26190479  0.02380950  0.29629630  1
  Ti  Ti2199  1  0.26190479  0.09523807  0.29629630  1
  Ti  Ti2200  1  0.26190479  0.16666664  0.29629630  1
  Ti  Ti2201  1  0.26190479  0.23809521  0.29629630  1
  Ti  Ti2202  1  0.26190479  0.30952379  0.29629630  1
  Ti  Ti2203  1  0.26190479  0.38095236  0.29629630  1
  Ti  Ti2204  1  0.26190479  0.45238093  0.29629630  1
  Ti  Ti2205  1  0.26190479  0.52380950  0.29629630  1
  Ti  Ti2206  1  0.26190479  0.59523807  0.29629630  1
  Ti  Ti2207  1  0.26190479  0.66666664  0.29629630  1
  Ti  Ti2208  1  0.26190479  0.73809521  0.29629630  1
  Ti  Ti2209  1  0.26190479  0.80952379  0.29629630  1
  Ti  Ti2210  1  0.26190479  0.88095236  0.29629630  1
  Ti  Ti2211  1  0.26190479  0.95238093  0.29629630  1
  Ti  Ti2212  1  0.33333336  0.02380950  0.29629630  1
  Ti  Ti2213  1  0.33333336  0.09523807  0.29629630  1
  Ti  Ti2214  1  0.33333336  0.16666664  0.29629630  1
  Ti  Ti2215  1  0.33333336  0.23809521  0.29629630  1
  Ti  Ti2216  1  0.33333336  0.30952379  0.29629630  1
  Ti  Ti2217  1  0.33333336  0.38095236  0.29629630  1
  Ti  Ti2218  1  0.33333336  0.45238093  0.29629630  1
  Ti  Ti2219  1  0.33333336  0.52380950  0.29629630  1
  Ti  Ti2220  1  0.33333336  0.59523807  0.29629630  1
  Ti  Ti2221  1  0.33333336  0.66666664  0.29629630  1
  Ti  Ti2222  1  0.33333336  0.73809521  0.29629630  1
  Ti  Ti2223  1  0.33333336  0.80952379  0.29629630  1
  Ti  Ti2224  1  0.33333336  0.88095236  0.29629630  1
  Ti  Ti2225  1  0.33333336  0.95238093  0.29629630  1
  Ti  Ti2226  1  0.40476193  0.02380950  0.29629630  1
  Ti  Ti2227  1  0.40476193  0.09523807  0.29629630  1
  Ti  Ti2228  1  0.40476193  0.16666664  0.29629630  1
  Ti  Ti2229  1  0.40476193  0.23809521  0.29629630  1
  Ti  Ti2230  1  0.40476193  0.30952379  0.29629630  1
  Ti  Ti2231  1  0.40476193  0.38095236  0.29629630  1
  Ti  Ti2232  1  0.40476193  0.45238093  0.29629630  1
  Ti  Ti2233  1  0.40476193  0.52380950  0.29629630  1
  Ti  Ti2234  1  0.40476193  0.59523807  0.29629630  1
  Ti  Ti2235  1  0.40476193  0.66666664  0.29629630  1
  Ti  Ti2236  1  0.40476193  0.73809521  0.29629630  1
  Ti  Ti2237  1  0.40476193  0.80952379  0.29629630  1
  Ti  Ti2238  1  0.40476193  0.88095236  0.29629630  1
  Ti  Ti2239  1  0.40476193  0.95238093  0.29629630  1
  Ti  Ti2240  1  0.47619050  0.02380950  0.29629630  1
  Ti  Ti2241  1  0.47619050  0.09523807  0.29629630  1
  Ti  Ti2242  1  0.47619050  0.16666664  0.29629630  1
  Ti  Ti2243  1  0.47619050  0.23809521  0.29629630  1
  Ti  Ti2244  1  0.47619050  0.30952379  0.29629630  1
  Ti  Ti2245  1  0.47619050  0.38095236  0.29629630  1
  Ti  Ti2246  1  0.47619050  0.45238093  0.29629630  1
  Ti  Ti2247  1  0.47619050  0.52380950  0.29629630  1
  Ti  Ti2248  1  0.47619050  0.59523807  0.29629630  1
  Ti  Ti2249  1  0.47619050  0.66666664  0.29629630  1
  Ti  Ti2250  1  0.47619050  0.73809521  0.29629630  1
  Ti  Ti2251  1  0.47619050  0.80952379  0.29629630  1
  Ti  Ti2252  1  0.47619050  0.88095236  0.29629630  1
  Ti  Ti2253  1  0.47619050  0.95238093  0.29629630  1
  Ti  Ti2254  1  0.54761907  0.02380950  0.29629630  1
  Ti  Ti2255  1  0.54761907  0.09523807  0.29629630  1
  Ti  Ti2256  1  0.54761907  0.16666664  0.29629630  1
  Ti  Ti2257  1  0.54761907  0.23809521  0.29629630  1
  Ti  Ti2258  1  0.54761907  0.30952379  0.29629630  1
  Ti  Ti2259  1  0.54761907  0.38095236  0.29629630  1
  Ti  Ti2260  1  0.54761907  0.45238093  0.29629630  1
  Ti  Ti2261  1  0.54761907  0.52380950  0.29629630  1
  Ti  Ti2262  1  0.54761907  0.59523807  0.29629630  1
  Ti  Ti2263  1  0.54761907  0.66666664  0.29629630  1
  Ti  Ti2264  1  0.54761907  0.73809521  0.29629630  1
  Ti  Ti2265  1  0.54761907  0.80952379  0.29629630  1
  Ti  Ti2266  1  0.54761907  0.88095236  0.29629630  1
  Ti  Ti2267  1  0.54761907  0.95238093  0.29629630  1
  Ti  Ti2268  1  0.61904764  0.02380950  0.29629630  1
  Ti  Ti2269  1  0.61904764  0.09523807  0.29629630  1
  Ti  Ti2270  1  0.61904764  0.16666664  0.29629630  1
  Ti  Ti2271  1  0.61904764  0.23809521  0.29629630  1
  Ti  Ti2272  1  0.61904764  0.30952379  0.29629630  1
  Ti  Ti2273  1  0.61904764  0.38095236  0.29629630  1
  Ti  Ti2274  1  0.61904764  0.45238093  0.29629630  1
  Ti  Ti2275  1  0.61904764  0.52380950  0.29629630  1
  Ti  Ti2276  1  0.61904764  0.59523807  0.29629630  1
  Ti  Ti2277  1  0.61904764  0.66666664  0.29629630  1
  Ti  Ti2278  1  0.61904764  0.73809521  0.29629630  1
  Ti  Ti2279  1  0.61904764  0.80952379  0.29629630  1
  Ti  Ti2280  1  0.61904764  0.88095236  0.29629630  1
  Ti  Ti2281  1  0.61904764  0.95238093  0.29629630  1
  Ti  Ti2282  1  0.69047621  0.02380950  0.29629630  1
  Ti  Ti2283  1  0.69047621  0.09523807  0.29629630  1
  Ti  Ti2284  1  0.69047621  0.16666664  0.29629630  1
  Ti  Ti2285  1  0.69047621  0.23809521  0.29629630  1
  Ti  Ti2286  1  0.69047621  0.30952379  0.29629630  1
  Ti  Ti2287  1  0.69047621  0.38095236  0.29629630  1
  Ti  Ti2288  1  0.69047621  0.45238093  0.29629630  1
  Ti  Ti2289  1  0.69047621  0.52380950  0.29629630  1
  Ti  Ti2290  1  0.69047621  0.59523807  0.29629630  1
  Ti  Ti2291  1  0.69047621  0.66666664  0.29629630  1
  Ti  Ti2292  1  0.69047621  0.73809521  0.29629630  1
  Ti  Ti2293  1  0.69047621  0.80952379  0.29629630  1
  Ti  Ti2294  1  0.69047621  0.88095236  0.29629630  1
  Ti  Ti2295  1  0.69047621  0.95238093  0.29629630  1
  Ti  Ti2296  1  0.76190479  0.02380950  0.29629630  1
  Ti  Ti2297  1  0.76190479  0.09523807  0.29629630  1
  Ti  Ti2298  1  0.76190479  0.16666664  0.29629630  1
  Ti  Ti2299  1  0.76190479  0.23809521  0.29629630  1
  Ti  Ti2300  1  0.76190479  0.30952379  0.29629630  1
  Ti  Ti2301  1  0.76190479  0.38095236  0.29629630  1
  Ti  Ti2302  1  0.76190479  0.45238093  0.29629630  1
  Ti  Ti2303  1  0.76190479  0.52380950  0.29629630  1
  Ti  Ti2304  1  0.76190479  0.59523807  0.29629630  1
  Ti  Ti2305  1  0.76190479  0.66666664  0.29629630  1
  Ti  Ti2306  1  0.76190479  0.73809521  0.29629630  1
  Ti  Ti2307  1  0.76190479  0.80952379  0.29629630  1
  Ti  Ti2308  1  0.76190479  0.88095236  0.29629630  1
  Ti  Ti2309  1  0.76190479  0.95238093  0.29629630  1
  Ti  Ti2310  1  0.83333336  0.02380950  0.29629630  1
  Ti  Ti2311  1  0.83333336  0.09523807  0.29629630  1
  Ti  Ti2312  1  0.83333336  0.16666664  0.29629630  1
  Ti  Ti2313  1  0.83333336  0.23809521  0.29629630  1
  Ti  Ti2314  1  0.83333336  0.30952379  0.29629630  1
  Ti  Ti2315  1  0.83333336  0.38095236  0.29629630  1
  Ti  Ti2316  1  0.83333336  0.45238093  0.29629630  1
  Ti  Ti2317  1  0.83333336  0.52380950  0.29629630  1
  Ti  Ti2318  1  0.83333336  0.59523807  0.29629630  1
  Ti  Ti2319  1  0.83333336  0.66666664  0.29629630  1
  Ti  Ti2320  1  0.83333336  0.73809521  0.29629630  1
  Ti  Ti2321  1  0.83333336  0.80952379  0.29629630  1
  Ti  Ti2322  1  0.83333336  0.88095236  0.29629630  1
  Ti  Ti2323  1  0.83333336  0.95238093  0.29629630  1
  Ti  Ti2324  1  0.90476193  0.02380950  0.29629630  1
  Ti  Ti2325  1  0.90476193  0.09523807  0.29629630  1
  Ti  Ti2326  1  0.90476193  0.16666664  0.29629630  1
  Ti  Ti2327  1  0.90476193  0.23809521  0.29629630  1
  Ti  Ti2328  1  0.90476193  0.30952379  0.29629630  1
  Ti  Ti2329  1  0.90476193  0.38095236  0.29629630  1
  Ti  Ti2330  1  0.90476193  0.45238093  0.29629630  1
  Ti  Ti2331  1  0.90476193  0.52380950  0.29629630  1
  Ti  Ti2332  1  0.90476193  0.59523807  0.29629630  1
  Ti  Ti2333  1  0.90476193  0.66666664  0.29629630  1
  Ti  Ti2334  1  0.90476193  0.73809521  0.29629630  1
  Ti  Ti2335  1  0.90476193  0.80952379  0.29629630  1
  Ti  Ti2336  1  0.90476193  0.88095236  0.29629630  1
  Ti  Ti2337  1  0.90476193  0.95238093  0.29629630  1
  Ti  Ti2338  1  0.97619050  0.02380950  0.29629630  1
  Ti  Ti2339  1  0.97619050  0.09523807  0.29629630  1
  Ti  Ti2340  1  0.97619050  0.16666664  0.29629630  1
  Ti  Ti2341  1  0.97619050  0.23809521  0.29629630  1
  Ti  Ti2342  1  0.97619050  0.30952379  0.29629630  1
  Ti  Ti2343  1  0.97619050  0.38095236  0.29629630  1
  Ti  Ti2344  1  0.97619050  0.45238093  0.29629630  1
  Ti  Ti2345  1  0.97619050  0.52380950  0.29629630  1
  Ti  Ti2346  1  0.97619050  0.59523807  0.29629630  1
  Ti  Ti2347  1  0.97619050  0.66666664  0.29629630  1
  Ti  Ti2348  1  0.97619050  0.73809521  0.29629630  1
  Ti  Ti2349  1  0.97619050  0.80952379  0.29629630  1
  Ti  Ti2350  1  0.97619050  0.88095236  0.29629630  1
  Ti  Ti2351  1  0.97619050  0.95238093  0.29629630  1
  Ti  Ti2352  1  0.00000000  0.00000000  0.32962963  1
  Ti  Ti2353  1  0.00000000  0.07142857  0.32962963  1
  Ti  Ti2354  1  0.00000000  0.14285714  0.32962963  1
  Ti  Ti2355  1  0.00000000  0.21428571  0.32962963  1
  Ti  Ti2356  1  0.00000000  0.28571429  0.32962963  1
  Ti  Ti2357  1  0.00000000  0.35714286  0.32962963  1
  Ti  Ti2358  1  0.00000000  0.42857143  0.32962963  1
  Ti  Ti2359  1  0.00000000  0.50000000  0.32962963  1
  Ti  Ti2360  1  0.00000000  0.57142857  0.32962963  1
  Ti  Ti2361  1  0.00000000  0.64285714  0.32962963  1
  Ti  Ti2362  1  0.00000000  0.71428571  0.32962963  1
  Ti  Ti2363  1  1.00000000  0.78571429  0.32962963  1
  Ti  Ti2364  1  0.00000000  0.85714286  0.32962963  1
  Ti  Ti2365  1  0.00000000  0.92857143  0.32962963  1
  Ti  Ti2366  1  0.07142857  0.00000000  0.32962963  1
  Ti  Ti2367  1  0.07142857  0.07142857  0.32962963  1
  Ti  Ti2368  1  0.07142857  0.14285714  0.32962963  1
  Ti  Ti2369  1  0.07142857  0.21428571  0.32962963  1
  Ti  Ti2370  1  0.07142857  0.28571429  0.32962963  1
  Ti  Ti2371  1  0.07142857  0.35714286  0.32962963  1
  Ti  Ti2372  1  0.07142857  0.42857143  0.32962963  1
  Ti  Ti2373  1  0.07142857  0.50000000  0.32962963  1
  Ti  Ti2374  1  0.07142857  0.57142857  0.32962963  1
  Ti  Ti2375  1  0.07142857  0.64285714  0.32962963  1
  Ti  Ti2376  1  0.07142857  0.71428571  0.32962963  1
  Ti  Ti2377  1  0.07142857  0.78571429  0.32962963  1
  Ti  Ti2378  1  0.07142857  0.85714286  0.32962963  1
  Ti  Ti2379  1  0.07142857  0.92857143  0.32962963  1
  Ti  Ti2380  1  0.14285714  0.00000000  0.32962963  1
  Ti  Ti2381  1  0.14285714  0.07142857  0.32962963  1
  Ti  Ti2382  1  0.14285714  0.14285714  0.32962963  1
  Ti  Ti2383  1  0.14285714  0.21428571  0.32962963  1
  Ti  Ti2384  1  0.14285714  0.28571429  0.32962963  1
  Ti  Ti2385  1  0.14285714  0.35714286  0.32962963  1
  Ti  Ti2386  1  0.14285714  0.42857143  0.32962963  1
  Ti  Ti2387  1  0.14285714  0.50000000  0.32962963  1
  Ti  Ti2388  1  0.14285714  0.57142857  0.32962963  1
  Ti  Ti2389  1  0.14285714  0.64285714  0.32962963  1
  Ti  Ti2390  1  0.14285714  0.71428571  0.32962963  1
  Ti  Ti2391  1  0.14285714  0.78571429  0.32962963  1
  Ti  Ti2392  1  0.14285714  0.85714286  0.32962963  1
  Ti  Ti2393  1  0.14285714  0.92857143  0.32962963  1
  Ti  Ti2394  1  0.21428571  0.00000000  0.32962963  1
  Ti  Ti2395  1  0.21428571  0.07142857  0.32962963  1
  Ti  Ti2396  1  0.21428571  0.14285714  0.32962963  1
  Ti  Ti2397  1  0.21428571  0.21428571  0.32962963  1
  Ti  Ti2398  1  0.21428571  0.28571429  0.32962963  1
  Ti  Ti2399  1  0.21428571  0.35714286  0.32962963  1
  Ti  Ti2400  1  0.21428571  0.42857143  0.32962963  1
  Ti  Ti2401  1  0.21428571  0.50000000  0.32962963  1
  Ti  Ti2402  1  0.21428571  0.57142857  0.32962963  1
  Ti  Ti2403  1  0.21428571  0.64285714  0.32962963  1
  Ti  Ti2404  1  0.21428571  0.71428571  0.32962963  1
  Ti  Ti2405  1  0.21428571  0.78571429  0.32962963  1
  Ti  Ti2406  1  0.21428571  0.85714286  0.32962963  1
  Ti  Ti2407  1  0.21428571  0.92857143  0.32962963  1
  Ti  Ti2408  1  0.28571429  0.00000000  0.32962963  1
  Ti  Ti2409  1  0.28571429  0.07142857  0.32962963  1
  Ti  Ti2410  1  0.28571429  0.14285714  0.32962963  1
  Ti  Ti2411  1  0.28571429  0.21428571  0.32962963  1
  Ti  Ti2412  1  0.28571429  0.28571429  0.32962963  1
  Ti  Ti2413  1  0.28571429  0.35714286  0.32962963  1
  Ti  Ti2414  1  0.28571429  0.42857143  0.32962963  1
  Ti  Ti2415  1  0.28571429  0.50000000  0.32962963  1
  Ti  Ti2416  1  0.28571429  0.57142857  0.32962963  1
  Ti  Ti2417  1  0.28571429  0.64285714  0.32962963  1
  Ti  Ti2418  1  0.28571429  0.71428571  0.32962963  1
  Ti  Ti2419  1  0.28571429  0.78571429  0.32962963  1
  Ti  Ti2420  1  0.28571429  0.85714286  0.32962963  1
  Ti  Ti2421  1  0.28571429  0.92857143  0.32962963  1
  Ti  Ti2422  1  0.35714286  0.00000000  0.32962963  1
  Ti  Ti2423  1  0.35714286  0.07142857  0.32962963  1
  Ti  Ti2424  1  0.35714286  0.14285714  0.32962963  1
  Ti  Ti2425  1  0.35714286  0.21428571  0.32962963  1
  Ti  Ti2426  1  0.35714286  0.28571429  0.32962963  1
  Ti  Ti2427  1  0.35714286  0.35714286  0.32962963  1
  Ti  Ti2428  1  0.35714286  0.42857143  0.32962963  1
  Ti  Ti2429  1  0.35714286  0.50000000  0.32962963  1
  Ti  Ti2430  1  0.35714286  0.57142857  0.32962963  1
  Ti  Ti2431  1  0.35714286  0.64285714  0.32962963  1
  Ti  Ti2432  1  0.35714286  0.71428571  0.32962963  1
  Ti  Ti2433  1  0.35714286  0.78571429  0.32962963  1
  Ti  Ti2434  1  0.35714286  0.85714286  0.32962963  1
  Ti  Ti2435  1  0.35714286  0.92857143  0.32962963  1
  Ti  Ti2436  1  0.42857143  0.00000000  0.32962963  1
  Ti  Ti2437  1  0.42857143  0.07142857  0.32962963  1
  Ti  Ti2438  1  0.42857143  0.14285714  0.32962963  1
  Ti  Ti2439  1  0.42857143  0.21428571  0.32962963  1
  Ti  Ti2440  1  0.42857143  0.28571429  0.32962963  1
  Ti  Ti2441  1  0.42857143  0.35714286  0.32962963  1
  Ti  Ti2442  1  0.42857143  0.42857143  0.32962963  1
  Ti  Ti2443  1  0.42857143  0.50000000  0.32962963  1
  Ti  Ti2444  1  0.42857143  0.57142857  0.32962963  1
  Ti  Ti2445  1  0.42857143  0.64285714  0.32962963  1
  Ti  Ti2446  1  0.42857143  0.71428571  0.32962963  1
  Ti  Ti2447  1  0.42857143  0.78571429  0.32962963  1
  Ti  Ti2448  1  0.42857143  0.85714286  0.32962963  1
  Ti  Ti2449  1  0.42857143  0.92857143  0.32962963  1
  Ti  Ti2450  1  0.50000000  0.00000000  0.32962963  1
  Ti  Ti2451  1  0.50000000  0.07142857  0.32962963  1
  Ti  Ti2452  1  0.50000000  0.14285714  0.32962963  1
  Ti  Ti2453  1  0.50000000  0.21428571  0.32962963  1
  Ti  Ti2454  1  0.50000000  0.28571429  0.32962963  1
  Ti  Ti2455  1  0.50000000  0.35714286  0.32962963  1
  Ti  Ti2456  1  0.50000000  0.42857143  0.32962963  1
  Ti  Ti2457  1  0.50000000  0.50000000  0.32962963  1
  Ti  Ti2458  1  0.50000000  0.57142857  0.32962963  1
  Ti  Ti2459  1  0.50000000  0.64285714  0.32962963  1
  Ti  Ti2460  1  0.50000000  0.71428571  0.32962963  1
  Ti  Ti2461  1  0.50000000  0.78571429  0.32962963  1
  Ti  Ti2462  1  0.50000000  0.85714286  0.32962963  1
  Ti  Ti2463  1  0.50000000  0.92857143  0.32962963  1
  Ti  Ti2464  1  0.57142857  0.00000000  0.32962963  1
  Ti  Ti2465  1  0.57142857  0.07142857  0.32962963  1
  Ti  Ti2466  1  0.57142857  0.14285714  0.32962963  1
  Ti  Ti2467  1  0.57142857  0.21428571  0.32962963  1
  Ti  Ti2468  1  0.57142857  0.28571429  0.32962963  1
  Ti  Ti2469  1  0.57142857  0.35714286  0.32962963  1
  Ti  Ti2470  1  0.57142857  0.42857143  0.32962963  1
  Ti  Ti2471  1  0.57142857  0.50000000  0.32962963  1
  Ti  Ti2472  1  0.57142857  0.57142857  0.32962963  1
  Ti  Ti2473  1  0.57142857  0.64285714  0.32962963  1
  Ti  Ti2474  1  0.57142857  0.71428571  0.32962963  1
  Ti  Ti2475  1  0.57142857  0.78571429  0.32962963  1
  Ti  Ti2476  1  0.57142857  0.85714286  0.32962963  1
  Ti  Ti2477  1  0.57142857  0.92857143  0.32962963  1
  Ti  Ti2478  1  0.64285714  0.00000000  0.32962963  1
  Ti  Ti2479  1  0.64285714  0.07142857  0.32962963  1
  Ti  Ti2480  1  0.64285714  0.14285714  0.32962963  1
  Ti  Ti2481  1  0.64285714  0.21428571  0.32962963  1
  Ti  Ti2482  1  0.64285714  0.28571429  0.32962963  1
  Ti  Ti2483  1  0.64285714  0.35714286  0.32962963  1
  Ti  Ti2484  1  0.64285714  0.42857143  0.32962963  1
  Ti  Ti2485  1  0.64285714  0.50000000  0.32962963  1
  Ti  Ti2486  1  0.64285714  0.57142857  0.32962963  1
  Ti  Ti2487  1  0.64285714  0.64285714  0.32962963  1
  Ti  Ti2488  1  0.64285714  0.71428571  0.32962963  1
  Ti  Ti2489  1  0.64285714  0.78571429  0.32962963  1
  Ti  Ti2490  1  0.64285714  0.85714286  0.32962963  1
  Ti  Ti2491  1  0.64285714  0.92857143  0.32962963  1
  Ti  Ti2492  1  0.71428571  0.00000000  0.32962963  1
  Ti  Ti2493  1  0.71428571  0.07142857  0.32962963  1
  Ti  Ti2494  1  0.71428571  0.14285714  0.32962963  1
  Ti  Ti2495  1  0.71428571  0.21428571  0.32962963  1
  Ti  Ti2496  1  0.71428571  0.28571429  0.32962963  1
  Ti  Ti2497  1  0.71428571  0.35714286  0.32962963  1
  Ti  Ti2498  1  0.71428571  0.42857143  0.32962963  1
  Ti  Ti2499  1  0.71428571  0.50000000  0.32962963  1
  Ti  Ti2500  1  0.71428571  0.57142857  0.32962963  1
  Ti  Ti2501  1  0.71428571  0.64285714  0.32962963  1
  Ti  Ti2502  1  0.71428571  0.71428571  0.32962963  1
  Ti  Ti2503  1  0.71428571  0.78571429  0.32962963  1
  Ti  Ti2504  1  0.71428571  0.85714286  0.32962963  1
  Ti  Ti2505  1  0.71428571  0.92857143  0.32962963  1
  Ti  Ti2506  1  0.78571429  0.00000000  0.32962963  1
  Ti  Ti2507  1  0.78571429  0.07142857  0.32962963  1
  Ti  Ti2508  1  0.78571429  0.14285714  0.32962963  1
  Ti  Ti2509  1  0.78571429  0.21428571  0.32962963  1
  Ti  Ti2510  1  0.78571429  0.28571429  0.32962963  1
  Ti  Ti2511  1  0.78571429  0.35714286  0.32962963  1
  Ti  Ti2512  1  0.78571429  0.42857143  0.32962963  1
  Ti  Ti2513  1  0.78571429  0.50000000  0.32962963  1
  Ti  Ti2514  1  0.78571429  0.57142857  0.32962963  1
  Ti  Ti2515  1  0.78571429  0.64285714  0.32962963  1
  Ti  Ti2516  1  0.78571429  0.71428571  0.32962963  1
  Ti  Ti2517  1  0.78571429  0.78571429  0.32962963  1
  Ti  Ti2518  1  0.78571429  0.85714286  0.32962963  1
  Ti  Ti2519  1  0.78571429  0.92857143  0.32962963  1
  Ti  Ti2520  1  0.85714286  0.00000000  0.32962963  1
  Ti  Ti2521  1  0.85714286  0.07142857  0.32962963  1
  Ti  Ti2522  1  0.85714286  0.14285714  0.32962963  1
  Ti  Ti2523  1  0.85714286  0.21428571  0.32962963  1
  Ti  Ti2524  1  0.85714286  0.28571429  0.32962963  1
  Ti  Ti2525  1  0.85714286  0.35714286  0.32962963  1
  Ti  Ti2526  1  0.85714286  0.42857143  0.32962963  1
  Ti  Ti2527  1  0.85714286  0.50000000  0.32962963  1
  Ti  Ti2528  1  0.85714286  0.57142857  0.32962963  1
  Ti  Ti2529  1  0.85714286  0.64285714  0.32962963  1
  Ti  Ti2530  1  0.85714286  0.71428571  0.32962963  1
  Ti  Ti2531  1  0.85714286  0.78571429  0.32962963  1
  Ti  Ti2532  1  0.85714286  0.85714286  0.32962963  1
  Ti  Ti2533  1  0.85714286  0.92857143  0.32962963  1
  Ti  Ti2534  1  0.92857143  0.00000000  0.32962963  1
  Ti  Ti2535  1  0.92857143  0.07142857  0.32962963  1
  Ti  Ti2536  1  0.92857143  0.14285714  0.32962963  1
  Ti  Ti2537  1  0.92857143  0.21428571  0.32962963  1
  Ti  Ti2538  1  0.92857143  0.28571429  0.32962963  1
  Ti  Ti2539  1  0.92857143  0.35714286  0.32962963  1
  Ti  Ti2540  1  0.92857143  0.42857143  0.32962963  1
  Ti  Ti2541  1  0.92857143  0.50000000  0.32962963  1
  Ti  Ti2542  1  0.92857143  0.57142857  0.32962963  1
  Ti  Ti2543  1  0.92857143  0.64285714  0.32962963  1
  Ti  Ti2544  1  0.92857143  0.71428571  0.32962963  1
  Ti  Ti2545  1  0.92857143  0.78571429  0.32962963  1
  Ti  Ti2546  1  0.92857143  0.85714286  0.32962963  1
  Ti  Ti2547  1  0.92857143  0.92857143  0.32962963  1
  Ti  Ti2548  1  0.02380950  0.04761907  0.31851852  1
  Ti  Ti2549  1  0.02380950  0.11904764  0.31851852  1
  Ti  Ti2550  1  0.02380950  0.19047621  0.31851852  1
  Ti  Ti2551  1  0.02380950  0.26190479  0.31851852  1
  Ti  Ti2552  1  0.02380950  0.33333336  0.31851852  1
  Ti  Ti2553  1  0.02380950  0.40476193  0.31851852  1
  Ti  Ti2554  1  0.02380950  0.47619050  0.31851852  1
  Ti  Ti2555  1  0.02380950  0.54761907  0.31851852  1
  Ti  Ti2556  1  0.02380950  0.61904764  0.31851852  1
  Ti  Ti2557  1  0.02380950  0.69047621  0.31851852  1
  Ti  Ti2558  1  0.02380950  0.76190479  0.31851852  1
  Ti  Ti2559  1  0.02380950  0.83333336  0.31851852  1
  Ti  Ti2560  1  0.02380950  0.90476193  0.31851852  1
  Ti  Ti2561  1  0.02380950  0.97619050  0.31851852  1
  Ti  Ti2562  1  0.09523807  0.04761907  0.31851852  1
  Ti  Ti2563  1  0.09523807  0.11904764  0.31851852  1
  Ti  Ti2564  1  0.09523807  0.19047621  0.31851852  1
  Ti  Ti2565  1  0.09523807  0.26190479  0.31851852  1
  Ti  Ti2566  1  0.09523807  0.33333336  0.31851852  1
  Ti  Ti2567  1  0.09523807  0.40476193  0.31851852  1
  Ti  Ti2568  1  0.09523807  0.47619050  0.31851852  1
  Ti  Ti2569  1  0.09523807  0.54761907  0.31851852  1
  Ti  Ti2570  1  0.09523807  0.61904764  0.31851852  1
  Ti  Ti2571  1  0.09523807  0.69047621  0.31851852  1
  Ti  Ti2572  1  0.09523807  0.76190479  0.31851852  1
  Ti  Ti2573  1  0.09523807  0.83333336  0.31851852  1
  Ti  Ti2574  1  0.09523807  0.90476193  0.31851852  1
  Ti  Ti2575  1  0.09523807  0.97619050  0.31851852  1
  Ti  Ti2576  1  0.16666664  0.04761907  0.31851852  1
  Ti  Ti2577  1  0.16666664  0.11904764  0.31851852  1
  Ti  Ti2578  1  0.16666664  0.19047621  0.31851852  1
  Ti  Ti2579  1  0.16666664  0.26190479  0.31851852  1
  Ti  Ti2580  1  0.16666664  0.33333336  0.31851852  1
  Ti  Ti2581  1  0.16666664  0.40476193  0.31851852  1
  Ti  Ti2582  1  0.16666664  0.47619050  0.31851852  1
  Ti  Ti2583  1  0.16666664  0.54761907  0.31851852  1
  Ti  Ti2584  1  0.16666664  0.61904764  0.31851852  1
  Ti  Ti2585  1  0.16666664  0.69047621  0.31851852  1
  Ti  Ti2586  1  0.16666664  0.76190479  0.31851852  1
  Ti  Ti2587  1  0.16666664  0.83333336  0.31851852  1
  Ti  Ti2588  1  0.16666664  0.90476193  0.31851852  1
  Ti  Ti2589  1  0.16666664  0.97619050  0.31851852  1
  Ti  Ti2590  1  0.23809521  0.04761907  0.31851852  1
  Ti  Ti2591  1  0.23809521  0.11904764  0.31851852  1
  Ti  Ti2592  1  0.23809521  0.19047621  0.31851852  1
  Ti  Ti2593  1  0.23809521  0.26190479  0.31851852  1
  Ti  Ti2594  1  0.23809521  0.33333336  0.31851852  1
  Ti  Ti2595  1  0.23809521  0.40476193  0.31851852  1
  Ti  Ti2596  1  0.23809521  0.47619050  0.31851852  1
  Ti  Ti2597  1  0.23809521  0.54761907  0.31851852  1
  Ti  Ti2598  1  0.23809521  0.61904764  0.31851852  1
  Ti  Ti2599  1  0.23809521  0.69047621  0.31851852  1
  Ti  Ti2600  1  0.23809521  0.76190479  0.31851852  1
  Ti  Ti2601  1  0.23809521  0.83333336  0.31851852  1
  Ti  Ti2602  1  0.23809521  0.90476193  0.31851852  1
  Ti  Ti2603  1  0.23809521  0.97619050  0.31851852  1
  Ti  Ti2604  1  0.30952379  0.04761907  0.31851852  1
  Ti  Ti2605  1  0.30952379  0.11904764  0.31851852  1
  Ti  Ti2606  1  0.30952379  0.19047621  0.31851852  1
  Ti  Ti2607  1  0.30952379  0.26190479  0.31851852  1
  Ti  Ti2608  1  0.30952379  0.33333336  0.31851852  1
  Ti  Ti2609  1  0.30952379  0.40476193  0.31851852  1
  Ti  Ti2610  1  0.30952379  0.47619050  0.31851852  1
  Ti  Ti2611  1  0.30952379  0.54761907  0.31851852  1
  Ti  Ti2612  1  0.30952379  0.61904764  0.31851852  1
  Ti  Ti2613  1  0.30952379  0.69047621  0.31851852  1
  Ti  Ti2614  1  0.30952379  0.76190479  0.31851852  1
  Ti  Ti2615  1  0.30952379  0.83333336  0.31851852  1
  Ti  Ti2616  1  0.30952379  0.90476193  0.31851852  1
  Ti  Ti2617  1  0.30952379  0.97619050  0.31851852  1
  Ti  Ti2618  1  0.38095236  0.04761907  0.31851852  1
  Ti  Ti2619  1  0.38095236  0.11904764  0.31851852  1
  Ti  Ti2620  1  0.38095236  0.19047621  0.31851852  1
  Ti  Ti2621  1  0.38095236  0.26190479  0.31851852  1
  Ti  Ti2622  1  0.38095236  0.33333336  0.31851852  1
  Ti  Ti2623  1  0.38095236  0.40476193  0.31851852  1
  Ti  Ti2624  1  0.38095236  0.47619050  0.31851852  1
  Ti  Ti2625  1  0.38095236  0.54761907  0.31851852  1
  Ti  Ti2626  1  0.38095236  0.61904764  0.31851852  1
  Ti  Ti2627  1  0.38095236  0.69047621  0.31851852  1
  Ti  Ti2628  1  0.38095236  0.76190479  0.31851852  1
  Ti  Ti2629  1  0.38095236  0.83333336  0.31851852  1
  Ti  Ti2630  1  0.38095236  0.90476193  0.31851852  1
  Ti  Ti2631  1  0.38095236  0.97619050  0.31851852  1
  Ti  Ti2632  1  0.45238093  0.04761907  0.31851852  1
  Ti  Ti2633  1  0.45238093  0.11904764  0.31851852  1
  Ti  Ti2634  1  0.45238093  0.19047621  0.31851852  1
  Ti  Ti2635  1  0.45238093  0.26190479  0.31851852  1
  Ti  Ti2636  1  0.45238093  0.33333336  0.31851852  1
  Ti  Ti2637  1  0.45238093  0.40476193  0.31851852  1
  Ti  Ti2638  1  0.45238093  0.47619050  0.31851852  1
  Ti  Ti2639  1  0.45238093  0.54761907  0.31851852  1
  Ti  Ti2640  1  0.45238093  0.61904764  0.31851852  1
  Ti  Ti2641  1  0.45238093  0.69047621  0.31851852  1
  Ti  Ti2642  1  0.45238093  0.76190479  0.31851852  1
  Ti  Ti2643  1  0.45238093  0.83333336  0.31851852  1
  Ti  Ti2644  1  0.45238093  0.90476193  0.31851852  1
  Ti  Ti2645  1  0.45238093  0.97619050  0.31851852  1
  Ti  Ti2646  1  0.52380950  0.04761907  0.31851852  1
  Ti  Ti2647  1  0.52380950  0.11904764  0.31851852  1
  Ti  Ti2648  1  0.52380950  0.19047621  0.31851852  1
  Ti  Ti2649  1  0.52380950  0.26190479  0.31851852  1
  Ti  Ti2650  1  0.52380950  0.33333336  0.31851852  1
  Ti  Ti2651  1  0.52380950  0.40476193  0.31851852  1
  Ti  Ti2652  1  0.52380950  0.47619050  0.31851852  1
  Ti  Ti2653  1  0.52380950  0.54761907  0.31851852  1
  Ti  Ti2654  1  0.52380950  0.61904764  0.31851852  1
  Ti  Ti2655  1  0.52380950  0.69047621  0.31851852  1
  Ti  Ti2656  1  0.52380950  0.76190479  0.31851852  1
  Ti  Ti2657  1  0.52380950  0.83333336  0.31851852  1
  Ti  Ti2658  1  0.52380950  0.90476193  0.31851852  1
  Ti  Ti2659  1  0.52380950  0.97619050  0.31851852  1
  Ti  Ti2660  1  0.59523807  0.04761907  0.31851852  1
  Ti  Ti2661  1  0.59523807  0.11904764  0.31851852  1
  Ti  Ti2662  1  0.59523807  0.19047621  0.31851852  1
  Ti  Ti2663  1  0.59523807  0.26190479  0.31851852  1
  Ti  Ti2664  1  0.59523807  0.33333336  0.31851852  1
  Ti  Ti2665  1  0.59523807  0.40476193  0.31851852  1
  Ti  Ti2666  1  0.59523807  0.47619050  0.31851852  1
  Ti  Ti2667  1  0.59523807  0.54761907  0.31851852  1
  Ti  Ti2668  1  0.59523807  0.61904764  0.31851852  1
  Ti  Ti2669  1  0.59523807  0.69047621  0.31851852  1
  Ti  Ti2670  1  0.59523807  0.76190479  0.31851852  1
  Ti  Ti2671  1  0.59523807  0.83333336  0.31851852  1
  Ti  Ti2672  1  0.59523807  0.90476193  0.31851852  1
  Ti  Ti2673  1  0.59523807  0.97619050  0.31851852  1
  Ti  Ti2674  1  0.66666664  0.04761907  0.31851852  1
  Ti  Ti2675  1  0.66666664  0.11904764  0.31851852  1
  Ti  Ti2676  1  0.66666664  0.19047621  0.31851852  1
  Ti  Ti2677  1  0.66666664  0.26190479  0.31851852  1
  Ti  Ti2678  1  0.66666664  0.33333336  0.31851852  1
  Ti  Ti2679  1  0.66666664  0.40476193  0.31851852  1
  Ti  Ti2680  1  0.66666664  0.47619050  0.31851852  1
  Ti  Ti2681  1  0.66666664  0.54761907  0.31851852  1
  Ti  Ti2682  1  0.66666664  0.61904764  0.31851852  1
  Ti  Ti2683  1  0.66666664  0.69047621  0.31851852  1
  Ti  Ti2684  1  0.66666664  0.76190479  0.31851852  1
  Ti  Ti2685  1  0.66666664  0.83333336  0.31851852  1
  Ti  Ti2686  1  0.66666664  0.90476193  0.31851852  1
  Ti  Ti2687  1  0.66666664  0.97619050  0.31851852  1
  Ti  Ti2688  1  0.73809521  0.04761907  0.31851852  1
  Ti  Ti2689  1  0.73809521  0.11904764  0.31851852  1
  Ti  Ti2690  1  0.73809521  0.19047621  0.31851852  1
  Ti  Ti2691  1  0.73809521  0.26190479  0.31851852  1
  Ti  Ti2692  1  0.73809521  0.33333336  0.31851852  1
  Ti  Ti2693  1  0.73809521  0.40476193  0.31851852  1
  Ti  Ti2694  1  0.73809521  0.47619050  0.31851852  1
  Ti  Ti2695  1  0.73809521  0.54761907  0.31851852  1
  Ti  Ti2696  1  0.73809521  0.61904764  0.31851852  1
  Ti  Ti2697  1  0.73809521  0.69047621  0.31851852  1
  Ti  Ti2698  1  0.73809521  0.76190479  0.31851852  1
  Ti  Ti2699  1  0.73809521  0.83333336  0.31851852  1
  Ti  Ti2700  1  0.73809521  0.90476193  0.31851852  1
  Ti  Ti2701  1  0.73809521  0.97619050  0.31851852  1
  Ti  Ti2702  1  0.80952379  0.04761907  0.31851852  1
  Ti  Ti2703  1  0.80952379  0.11904764  0.31851852  1
  Ti  Ti2704  1  0.80952379  0.19047621  0.31851852  1
  Ti  Ti2705  1  0.80952379  0.26190479  0.31851852  1
  Ti  Ti2706  1  0.80952379  0.33333336  0.31851852  1
  Ti  Ti2707  1  0.80952379  0.40476193  0.31851852  1
  Ti  Ti2708  1  0.80952379  0.47619050  0.31851852  1
  Ti  Ti2709  1  0.80952379  0.54761907  0.31851852  1
  Ti  Ti2710  1  0.80952379  0.61904764  0.31851852  1
  Ti  Ti2711  1  0.80952379  0.69047621  0.31851852  1
  Ti  Ti2712  1  0.80952379  0.76190479  0.31851852  1
  Ti  Ti2713  1  0.80952379  0.83333336  0.31851852  1
  Ti  Ti2714  1  0.80952379  0.90476193  0.31851852  1
  Ti  Ti2715  1  0.80952379  0.97619050  0.31851852  1
  Ti  Ti2716  1  0.88095236  0.04761907  0.31851852  1
  Ti  Ti2717  1  0.88095236  0.11904764  0.31851852  1
  Ti  Ti2718  1  0.88095236  0.19047621  0.31851852  1
  Ti  Ti2719  1  0.88095236  0.26190479  0.31851852  1
  Ti  Ti2720  1  0.88095236  0.33333336  0.31851852  1
  Ti  Ti2721  1  0.88095236  0.40476193  0.31851852  1
  Ti  Ti2722  1  0.88095236  0.47619050  0.31851852  1
  Ti  Ti2723  1  0.88095236  0.54761907  0.31851852  1
  Ti  Ti2724  1  0.88095236  0.61904764  0.31851852  1
  Ti  Ti2725  1  0.88095236  0.69047621  0.31851852  1
  Ti  Ti2726  1  0.88095236  0.76190479  0.31851852  1
  Ti  Ti2727  1  0.88095236  0.83333336  0.31851852  1
  Ti  Ti2728  1  0.88095236  0.90476193  0.31851852  1
  Ti  Ti2729  1  0.88095236  0.97619050  0.31851852  1
  Ti  Ti2730  1  0.95238093  0.04761907  0.31851852  1
  Ti  Ti2731  1  0.95238093  0.11904764  0.31851852  1
  Ti  Ti2732  1  0.95238093  0.19047621  0.31851852  1
  Ti  Ti2733  1  0.95238093  0.26190479  0.31851852  1
  Ti  Ti2734  1  0.95238093  0.33333336  0.31851852  1
  Ti  Ti2735  1  0.95238093  0.40476193  0.31851852  1
  Ti  Ti2736  1  0.95238093  0.47619050  0.31851852  1
  Ti  Ti2737  1  0.95238093  0.54761907  0.31851852  1
  Ti  Ti2738  1  0.95238093  0.61904764  0.31851852  1
  Ti  Ti2739  1  0.95238093  0.69047621  0.31851852  1
  Ti  Ti2740  1  0.95238093  0.76190479  0.31851852  1
  Ti  Ti2741  1  0.95238093  0.83333336  0.31851852  1
  Ti  Ti2742  1  0.95238093  0.90476193  0.31851852  1
  Ti  Ti2743  1  0.95238093  0.97619050  0.31851852  1
  Ti  Ti2744  1  0.04761907  0.02380950  0.31851852  1
  Ti  Ti2745  1  0.04761907  0.09523807  0.31851852  1
  Ti  Ti2746  1  0.04761907  0.16666664  0.31851852  1
  Ti  Ti2747  1  0.04761907  0.23809521  0.31851852  1
  Ti  Ti2748  1  0.04761907  0.30952379  0.31851852  1
  Ti  Ti2749  1  0.04761907  0.38095236  0.31851852  1
  Ti  Ti2750  1  0.04761907  0.45238093  0.31851852  1
  Ti  Ti2751  1  0.04761907  0.52380950  0.31851852  1
  Ti  Ti2752  1  0.04761907  0.59523807  0.31851852  1
  Ti  Ti2753  1  0.04761907  0.66666664  0.31851852  1
  Ti  Ti2754  1  0.04761907  0.73809521  0.31851852  1
  Ti  Ti2755  1  0.04761907  0.80952379  0.31851852  1
  Ti  Ti2756  1  0.04761907  0.88095236  0.31851852  1
  Ti  Ti2757  1  0.04761907  0.95238093  0.31851852  1
  Ti  Ti2758  1  0.11904764  0.02380950  0.31851852  1
  Ti  Ti2759  1  0.11904764  0.09523807  0.31851852  1
  Ti  Ti2760  1  0.11904764  0.16666664  0.31851852  1
  Ti  Ti2761  1  0.11904764  0.23809521  0.31851852  1
  Ti  Ti2762  1  0.11904764  0.30952379  0.31851852  1
  Ti  Ti2763  1  0.11904764  0.38095236  0.31851852  1
  Ti  Ti2764  1  0.11904764  0.45238093  0.31851852  1
  Ti  Ti2765  1  0.11904764  0.52380950  0.31851852  1
  Ti  Ti2766  1  0.11904764  0.59523807  0.31851852  1
  Ti  Ti2767  1  0.11904764  0.66666664  0.31851852  1
  Ti  Ti2768  1  0.11904764  0.73809521  0.31851852  1
  Ti  Ti2769  1  0.11904764  0.80952379  0.31851852  1
  Ti  Ti2770  1  0.11904764  0.88095236  0.31851852  1
  Ti  Ti2771  1  0.11904764  0.95238093  0.31851852  1
  Ti  Ti2772  1  0.19047621  0.02380950  0.31851852  1
  Ti  Ti2773  1  0.19047621  0.09523807  0.31851852  1
  Ti  Ti2774  1  0.19047621  0.16666664  0.31851852  1
  Ti  Ti2775  1  0.19047621  0.23809521  0.31851852  1
  Ti  Ti2776  1  0.19047621  0.30952379  0.31851852  1
  Ti  Ti2777  1  0.19047621  0.38095236  0.31851852  1
  Ti  Ti2778  1  0.19047621  0.45238093  0.31851852  1
  Ti  Ti2779  1  0.19047621  0.52380950  0.31851852  1
  Ti  Ti2780  1  0.19047621  0.59523807  0.31851852  1
  Ti  Ti2781  1  0.19047621  0.66666664  0.31851852  1
  Ti  Ti2782  1  0.19047621  0.73809521  0.31851852  1
  Ti  Ti2783  1  0.19047621  0.80952379  0.31851852  1
  Ti  Ti2784  1  0.19047621  0.88095236  0.31851852  1
  Ti  Ti2785  1  0.19047621  0.95238093  0.31851852  1
  Ti  Ti2786  1  0.26190479  0.02380950  0.31851852  1
  Ti  Ti2787  1  0.26190479  0.09523807  0.31851852  1
  Ti  Ti2788  1  0.26190479  0.16666664  0.31851852  1
  Ti  Ti2789  1  0.26190479  0.23809521  0.31851852  1
  Ti  Ti2790  1  0.26190479  0.30952379  0.31851852  1
  Ti  Ti2791  1  0.26190479  0.38095236  0.31851852  1
  Ti  Ti2792  1  0.26190479  0.45238093  0.31851852  1
  Ti  Ti2793  1  0.26190479  0.52380950  0.31851852  1
  Ti  Ti2794  1  0.26190479  0.59523807  0.31851852  1
  Ti  Ti2795  1  0.26190479  0.66666664  0.31851852  1
  Ti  Ti2796  1  0.26190479  0.73809521  0.31851852  1
  Ti  Ti2797  1  0.26190479  0.80952379  0.31851852  1
  Ti  Ti2798  1  0.26190479  0.88095236  0.31851852  1
  Ti  Ti2799  1  0.26190479  0.95238093  0.31851852  1
  Ti  Ti2800  1  0.33333336  0.02380950  0.31851852  1
  Ti  Ti2801  1  0.33333336  0.09523807  0.31851852  1
  Ti  Ti2802  1  0.33333336  0.16666664  0.31851852  1
  Ti  Ti2803  1  0.33333336  0.23809521  0.31851852  1
  Ti  Ti2804  1  0.33333336  0.30952379  0.31851852  1
  Ti  Ti2805  1  0.33333336  0.38095236  0.31851852  1
  Ti  Ti2806  1  0.33333336  0.45238093  0.31851852  1
  Ti  Ti2807  1  0.33333336  0.52380950  0.31851852  1
  Ti  Ti2808  1  0.33333336  0.59523807  0.31851852  1
  Ti  Ti2809  1  0.33333336  0.66666664  0.31851852  1
  Ti  Ti2810  1  0.33333336  0.73809521  0.31851852  1
  Ti  Ti2811  1  0.33333336  0.80952379  0.31851852  1
  Ti  Ti2812  1  0.33333336  0.88095236  0.31851852  1
  Ti  Ti2813  1  0.33333336  0.95238093  0.31851852  1
  Ti  Ti2814  1  0.40476193  0.02380950  0.31851852  1
  Ti  Ti2815  1  0.40476193  0.09523807  0.31851852  1
  Ti  Ti2816  1  0.40476193  0.16666664  0.31851852  1
  Ti  Ti2817  1  0.40476193  0.23809521  0.31851852  1
  Ti  Ti2818  1  0.40476193  0.30952379  0.31851852  1
  Ti  Ti2819  1  0.40476193  0.38095236  0.31851852  1
  Ti  Ti2820  1  0.40476193  0.45238093  0.31851852  1
  Ti  Ti2821  1  0.40476193  0.52380950  0.31851852  1
  Ti  Ti2822  1  0.40476193  0.59523807  0.31851852  1
  Ti  Ti2823  1  0.40476193  0.66666664  0.31851852  1
  Ti  Ti2824  1  0.40476193  0.73809521  0.31851852  1
  Ti  Ti2825  1  0.40476193  0.80952379  0.31851852  1
  Ti  Ti2826  1  0.40476193  0.88095236  0.31851852  1
  Ti  Ti2827  1  0.40476193  0.95238093  0.31851852  1
  Ti  Ti2828  1  0.47619050  0.02380950  0.31851852  1
  Ti  Ti2829  1  0.47619050  0.09523807  0.31851852  1
  Ti  Ti2830  1  0.47619050  0.16666664  0.31851852  1
  Ti  Ti2831  1  0.47619050  0.23809521  0.31851852  1
  Ti  Ti2832  1  0.47619050  0.30952379  0.31851852  1
  Ti  Ti2833  1  0.47619050  0.38095236  0.31851852  1
  Ti  Ti2834  1  0.47619050  0.45238093  0.31851852  1
  Ti  Ti2835  1  0.47619050  0.52380950  0.31851852  1
  Ti  Ti2836  1  0.47619050  0.59523807  0.31851852  1
  Ti  Ti2837  1  0.47619050  0.66666664  0.31851852  1
  Ti  Ti2838  1  0.47619050  0.73809521  0.31851852  1
  Ti  Ti2839  1  0.47619050  0.80952379  0.31851852  1
  Ti  Ti2840  1  0.47619050  0.88095236  0.31851852  1
  Ti  Ti2841  1  0.47619050  0.95238093  0.31851852  1
  Ti  Ti2842  1  0.54761907  0.02380950  0.31851852  1
  Ti  Ti2843  1  0.54761907  0.09523807  0.31851852  1
  Ti  Ti2844  1  0.54761907  0.16666664  0.31851852  1
  Ti  Ti2845  1  0.54761907  0.23809521  0.31851852  1
  Ti  Ti2846  1  0.54761907  0.30952379  0.31851852  1
  Ti  Ti2847  1  0.54761907  0.38095236  0.31851852  1
  Ti  Ti2848  1  0.54761907  0.45238093  0.31851852  1
  Ti  Ti2849  1  0.54761907  0.52380950  0.31851852  1
  Ti  Ti2850  1  0.54761907  0.59523807  0.31851852  1
  Ti  Ti2851  1  0.54761907  0.66666664  0.31851852  1
  Ti  Ti2852  1  0.54761907  0.73809521  0.31851852  1
  Ti  Ti2853  1  0.54761907  0.80952379  0.31851852  1
  Ti  Ti2854  1  0.54761907  0.88095236  0.31851852  1
  Ti  Ti2855  1  0.54761907  0.95238093  0.31851852  1
  Ti  Ti2856  1  0.61904764  0.02380950  0.31851852  1
  Ti  Ti2857  1  0.61904764  0.09523807  0.31851852  1
  Ti  Ti2858  1  0.61904764  0.16666664  0.31851852  1
  Ti  Ti2859  1  0.61904764  0.23809521  0.31851852  1
  Ti  Ti2860  1  0.61904764  0.30952379  0.31851852  1
  Ti  Ti2861  1  0.61904764  0.38095236  0.31851852  1
  Ti  Ti2862  1  0.61904764  0.45238093  0.31851852  1
  Ti  Ti2863  1  0.61904764  0.52380950  0.31851852  1
  Ti  Ti2864  1  0.61904764  0.59523807  0.31851852  1
  Ti  Ti2865  1  0.61904764  0.66666664  0.31851852  1
  Ti  Ti2866  1  0.61904764  0.73809521  0.31851852  1
  Ti  Ti2867  1  0.61904764  0.80952379  0.31851852  1
  Ti  Ti2868  1  0.61904764  0.88095236  0.31851852  1
  Ti  Ti2869  1  0.61904764  0.95238093  0.31851852  1
  Ti  Ti2870  1  0.69047621  0.02380950  0.31851852  1
  Ti  Ti2871  1  0.69047621  0.09523807  0.31851852  1
  Ti  Ti2872  1  0.69047621  0.16666664  0.31851852  1
  Ti  Ti2873  1  0.69047621  0.23809521  0.31851852  1
  Ti  Ti2874  1  0.69047621  0.30952379  0.31851852  1
  Ti  Ti2875  1  0.69047621  0.38095236  0.31851852  1
  Ti  Ti2876  1  0.69047621  0.45238093  0.31851852  1
  Ti  Ti2877  1  0.69047621  0.52380950  0.31851852  1
  Ti  Ti2878  1  0.69047621  0.59523807  0.31851852  1
  Ti  Ti2879  1  0.69047621  0.66666664  0.31851852  1
  Ti  Ti2880  1  0.69047621  0.73809521  0.31851852  1
  Ti  Ti2881  1  0.69047621  0.80952379  0.31851852  1
  Ti  Ti2882  1  0.69047621  0.88095236  0.31851852  1
  Ti  Ti2883  1  0.69047621  0.95238093  0.31851852  1
  Ti  Ti2884  1  0.76190479  0.02380950  0.31851852  1
  Ti  Ti2885  1  0.76190479  0.09523807  0.31851852  1
  Ti  Ti2886  1  0.76190479  0.16666664  0.31851852  1
  Ti  Ti2887  1  0.76190479  0.23809521  0.31851852  1
  Ti  Ti2888  1  0.76190479  0.30952379  0.31851852  1
  Ti  Ti2889  1  0.76190479  0.38095236  0.31851852  1
  Ti  Ti2890  1  0.76190479  0.45238093  0.31851852  1
  Ti  Ti2891  1  0.76190479  0.52380950  0.31851852  1
  Ti  Ti2892  1  0.76190479  0.59523807  0.31851852  1
  Ti  Ti2893  1  0.76190479  0.66666664  0.31851852  1
  Ti  Ti2894  1  0.76190479  0.73809521  0.31851852  1
  Ti  Ti2895  1  0.76190479  0.80952379  0.31851852  1
  Ti  Ti2896  1  0.76190479  0.88095236  0.31851852  1
  Ti  Ti2897  1  0.76190479  0.95238093  0.31851852  1
  Ti  Ti2898  1  0.83333336  0.02380950  0.31851852  1
  Ti  Ti2899  1  0.83333336  0.09523807  0.31851852  1
  Ti  Ti2900  1  0.83333336  0.16666664  0.31851852  1
  Ti  Ti2901  1  0.83333336  0.23809521  0.31851852  1
  Ti  Ti2902  1  0.83333336  0.30952379  0.31851852  1
  Ti  Ti2903  1  0.83333336  0.38095236  0.31851852  1
  Ti  Ti2904  1  0.83333336  0.45238093  0.31851852  1
  Ti  Ti2905  1  0.83333336  0.52380950  0.31851852  1
  Ti  Ti2906  1  0.83333336  0.59523807  0.31851852  1
  Ti  Ti2907  1  0.83333336  0.66666664  0.31851852  1
  Ti  Ti2908  1  0.83333336  0.73809521  0.31851852  1
  Ti  Ti2909  1  0.83333336  0.80952379  0.31851852  1
  Ti  Ti2910  1  0.83333336  0.88095236  0.31851852  1
  Ti  Ti2911  1  0.83333336  0.95238093  0.31851852  1
  Ti  Ti2912  1  0.90476193  0.02380950  0.31851852  1
  Ti  Ti2913  1  0.90476193  0.09523807  0.31851852  1
  Ti  Ti2914  1  0.90476193  0.16666664  0.31851852  1
  Ti  Ti2915  1  0.90476193  0.23809521  0.31851852  1
  Ti  Ti2916  1  0.90476193  0.30952379  0.31851852  1
  Ti  Ti2917  1  0.90476193  0.38095236  0.31851852  1
  Ti  Ti2918  1  0.90476193  0.45238093  0.31851852  1
  Ti  Ti2919  1  0.90476193  0.52380950  0.31851852  1
  Ti  Ti2920  1  0.90476193  0.59523807  0.31851852  1
  Ti  Ti2921  1  0.90476193  0.66666664  0.31851852  1
  Ti  Ti2922  1  0.90476193  0.73809521  0.31851852  1
  Ti  Ti2923  1  0.90476193  0.80952379  0.31851852  1
  Ti  Ti2924  1  0.90476193  0.88095236  0.31851852  1
  Ti  Ti2925  1  0.90476193  0.95238093  0.31851852  1
  Ti  Ti2926  1  0.97619050  0.02380950  0.31851852  1
  Ti  Ti2927  1  0.97619050  0.09523807  0.31851852  1
  Ti  Ti2928  1  0.97619050  0.16666664  0.31851852  1
  Ti  Ti2929  1  0.97619050  0.23809521  0.31851852  1
  Ti  Ti2930  1  0.97619050  0.30952379  0.31851852  1
  Ti  Ti2931  1  0.97619050  0.38095236  0.31851852  1
  Ti  Ti2932  1  0.97619050  0.45238093  0.31851852  1
  Ti  Ti2933  1  0.97619050  0.52380950  0.31851852  1
  Ti  Ti2934  1  0.97619050  0.59523807  0.31851852  1
  Ti  Ti2935  1  0.97619050  0.66666664  0.31851852  1
  Ti  Ti2936  1  0.97619050  0.73809521  0.31851852  1
  Ti  Ti2937  1  0.97619050  0.80952379  0.31851852  1
  Ti  Ti2938  1  0.97619050  0.88095236  0.31851852  1
  Ti  Ti2939  1  0.97619050  0.95238093  0.31851852  1
  Ti  Ti2940  1  0.00000000  0.00000000  0.35185185  1
  Ti  Ti2941  1  0.00000000  0.07142857  0.35185185  1
  Ti  Ti2942  1  0.00000000  0.14285714  0.35185185  1
  Ti  Ti2943  1  0.00000000  0.21428571  0.35185185  1
  Ti  Ti2944  1  0.00000000  0.28571429  0.35185185  1
  Ti  Ti2945  1  0.00000000  0.35714286  0.35185185  1
  Ti  Ti2946  1  0.00000000  0.42857143  0.35185185  1
  Ti  Ti2947  1  0.00000000  0.50000000  0.35185185  1
  Ti  Ti2948  1  0.00000000  0.57142857  0.35185185  1
  Ti  Ti2949  1  0.00000000  0.64285714  0.35185185  1
  Ti  Ti2950  1  0.00000000  0.71428571  0.35185185  1
  Ti  Ti2951  1  1.00000000  0.78571429  0.35185185  1
  Ti  Ti2952  1  0.00000000  0.85714286  0.35185185  1
  Ti  Ti2953  1  0.00000000  0.92857143  0.35185185  1
  Ti  Ti2954  1  0.07142857  0.00000000  0.35185185  1
  Ti  Ti2955  1  0.07142857  0.07142857  0.35185185  1
  Ti  Ti2956  1  0.07142857  0.14285714  0.35185185  1
  Ti  Ti2957  1  0.07142857  0.21428571  0.35185185  1
  Ti  Ti2958  1  0.07142857  0.28571429  0.35185185  1
  Ti  Ti2959  1  0.07142857  0.35714286  0.35185185  1
  Ti  Ti2960  1  0.07142857  0.42857143  0.35185185  1
  Ti  Ti2961  1  0.07142857  0.50000000  0.35185185  1
  Ti  Ti2962  1  0.07142857  0.57142857  0.35185185  1
  Ti  Ti2963  1  0.07142857  0.64285714  0.35185185  1
  Ti  Ti2964  1  0.07142857  0.71428571  0.35185185  1
  Ti  Ti2965  1  0.07142857  0.78571429  0.35185185  1
  Ti  Ti2966  1  0.07142857  0.85714286  0.35185185  1
  Ti  Ti2967  1  0.07142857  0.92857143  0.35185185  1
  Ti  Ti2968  1  0.14285714  0.00000000  0.35185185  1
  Ti  Ti2969  1  0.14285714  0.07142857  0.35185185  1
  Ti  Ti2970  1  0.14285714  0.14285714  0.35185185  1
  Ti  Ti2971  1  0.14285714  0.21428571  0.35185185  1
  Ti  Ti2972  1  0.14285714  0.28571429  0.35185185  1
  Ti  Ti2973  1  0.14285714  0.35714286  0.35185185  1
  Ti  Ti2974  1  0.14285714  0.42857143  0.35185185  1
  Ti  Ti2975  1  0.14285714  0.50000000  0.35185185  1
  Ti  Ti2976  1  0.14285714  0.57142857  0.35185185  1
  Ti  Ti2977  1  0.14285714  0.64285714  0.35185185  1
  Ti  Ti2978  1  0.14285714  0.71428571  0.35185185  1
  Ti  Ti2979  1  0.14285714  0.78571429  0.35185185  1
  Ti  Ti2980  1  0.14285714  0.85714286  0.35185185  1
  Ti  Ti2981  1  0.14285714  0.92857143  0.35185185  1
  Ti  Ti2982  1  0.21428571  0.00000000  0.35185185  1
  Ti  Ti2983  1  0.21428571  0.07142857  0.35185185  1
  Ti  Ti2984  1  0.21428571  0.14285714  0.35185185  1
  Ti  Ti2985  1  0.21428571  0.21428571  0.35185185  1
  Ti  Ti2986  1  0.21428571  0.28571429  0.35185185  1
  Ti  Ti2987  1  0.21428571  0.35714286  0.35185185  1
  Ti  Ti2988  1  0.21428571  0.42857143  0.35185185  1
  Ti  Ti2989  1  0.21428571  0.50000000  0.35185185  1
  Ti  Ti2990  1  0.21428571  0.57142857  0.35185185  1
  Ti  Ti2991  1  0.21428571  0.64285714  0.35185185  1
  Ti  Ti2992  1  0.21428571  0.71428571  0.35185185  1
  Ti  Ti2993  1  0.21428571  0.78571429  0.35185185  1
  Ti  Ti2994  1  0.21428571  0.85714286  0.35185185  1
  Ti  Ti2995  1  0.21428571  0.92857143  0.35185185  1
  Ti  Ti2996  1  0.28571429  0.00000000  0.35185185  1
  Ti  Ti2997  1  0.28571429  0.07142857  0.35185185  1
  Ti  Ti2998  1  0.28571429  0.14285714  0.35185185  1
  Ti  Ti2999  1  0.28571429  0.21428571  0.35185185  1
  Ti  Ti3000  1  0.28571429  0.28571429  0.35185185  1
  Ti  Ti3001  1  0.28571429  0.35714286  0.35185185  1
  Ti  Ti3002  1  0.28571429  0.42857143  0.35185185  1
  Ti  Ti3003  1  0.28571429  0.50000000  0.35185185  1
  Ti  Ti3004  1  0.28571429  0.57142857  0.35185185  1
  Ti  Ti3005  1  0.28571429  0.64285714  0.35185185  1
  Ti  Ti3006  1  0.28571429  0.71428571  0.35185185  1
  Ti  Ti3007  1  0.28571429  0.78571429  0.35185185  1
  Ti  Ti3008  1  0.28571429  0.85714286  0.35185185  1
  Ti  Ti3009  1  0.28571429  0.92857143  0.35185185  1
  Ti  Ti3010  1  0.35714286  0.00000000  0.35185185  1
  Ti  Ti3011  1  0.35714286  0.07142857  0.35185185  1
  Ti  Ti3012  1  0.35714286  0.14285714  0.35185185  1
  Ti  Ti3013  1  0.35714286  0.21428571  0.35185185  1
  Ti  Ti3014  1  0.35714286  0.28571429  0.35185185  1
  Ti  Ti3015  1  0.35714286  0.35714286  0.35185185  1
  Ti  Ti3016  1  0.35714286  0.42857143  0.35185185  1
  Ti  Ti3017  1  0.35714286  0.50000000  0.35185185  1
  Ti  Ti3018  1  0.35714286  0.57142857  0.35185185  1
  Ti  Ti3019  1  0.35714286  0.64285714  0.35185185  1
  Ti  Ti3020  1  0.35714286  0.71428571  0.35185185  1
  Ti  Ti3021  1  0.35714286  0.78571429  0.35185185  1
  Ti  Ti3022  1  0.35714286  0.85714286  0.35185185  1
  Ti  Ti3023  1  0.35714286  0.92857143  0.35185185  1
  Ti  Ti3024  1  0.42857143  0.00000000  0.35185185  1
  Ti  Ti3025  1  0.42857143  0.07142857  0.35185185  1
  Ti  Ti3026  1  0.42857143  0.14285714  0.35185185  1
  Ti  Ti3027  1  0.42857143  0.21428571  0.35185185  1
  Ti  Ti3028  1  0.42857143  0.28571429  0.35185185  1
  Ti  Ti3029  1  0.42857143  0.35714286  0.35185185  1
  Ti  Ti3030  1  0.42857143  0.42857143  0.35185185  1
  Ti  Ti3031  1  0.42857143  0.50000000  0.35185185  1
  Ti  Ti3032  1  0.42857143  0.57142857  0.35185185  1
  Ti  Ti3033  1  0.42857143  0.64285714  0.35185185  1
  Ti  Ti3034  1  0.42857143  0.71428571  0.35185185  1
  Ti  Ti3035  1  0.42857143  0.78571429  0.35185185  1
  Ti  Ti3036  1  0.42857143  0.85714286  0.35185185  1
  Ti  Ti3037  1  0.42857143  0.92857143  0.35185185  1
  Ti  Ti3038  1  0.50000000  0.00000000  0.35185185  1
  Ti  Ti3039  1  0.50000000  0.07142857  0.35185185  1
  Ti  Ti3040  1  0.50000000  0.14285714  0.35185185  1
  Ti  Ti3041  1  0.50000000  0.21428571  0.35185185  1
  Ti  Ti3042  1  0.50000000  0.28571429  0.35185185  1
  Ti  Ti3043  1  0.50000000  0.35714286  0.35185185  1
  Ti  Ti3044  1  0.50000000  0.42857143  0.35185185  1
  Ti  Ti3045  1  0.50000000  0.50000000  0.35185185  1
  Ti  Ti3046  1  0.50000000  0.57142857  0.35185185  1
  Ti  Ti3047  1  0.50000000  0.64285714  0.35185185  1
  Ti  Ti3048  1  0.50000000  0.71428571  0.35185185  1
  Ti  Ti3049  1  0.50000000  0.78571429  0.35185185  1
  Ti  Ti3050  1  0.50000000  0.85714286  0.35185185  1
  Ti  Ti3051  1  0.50000000  0.92857143  0.35185185  1
  Ti  Ti3052  1  0.57142857  0.00000000  0.35185185  1
  Ti  Ti3053  1  0.57142857  0.07142857  0.35185185  1
  Ti  Ti3054  1  0.57142857  0.14285714  0.35185185  1
  Ti  Ti3055  1  0.57142857  0.21428571  0.35185185  1
  Ti  Ti3056  1  0.57142857  0.28571429  0.35185185  1
  Ti  Ti3057  1  0.57142857  0.35714286  0.35185185  1
  Ti  Ti3058  1  0.57142857  0.42857143  0.35185185  1
  Ti  Ti3059  1  0.57142857  0.50000000  0.35185185  1
  Ti  Ti3060  1  0.57142857  0.57142857  0.35185185  1
  Ti  Ti3061  1  0.57142857  0.64285714  0.35185185  1
  Ti  Ti3062  1  0.57142857  0.71428571  0.35185185  1
  Ti  Ti3063  1  0.57142857  0.78571429  0.35185185  1
  Ti  Ti3064  1  0.57142857  0.85714286  0.35185185  1
  Ti  Ti3065  1  0.57142857  0.92857143  0.35185185  1
  Ti  Ti3066  1  0.64285714  0.00000000  0.35185185  1
  Ti  Ti3067  1  0.64285714  0.07142857  0.35185185  1
  Ti  Ti3068  1  0.64285714  0.14285714  0.35185185  1
  Ti  Ti3069  1  0.64285714  0.21428571  0.35185185  1
  Ti  Ti3070  1  0.64285714  0.28571429  0.35185185  1
  Ti  Ti3071  1  0.64285714  0.35714286  0.35185185  1
  Ti  Ti3072  1  0.64285714  0.42857143  0.35185185  1
  Ti  Ti3073  1  0.64285714  0.50000000  0.35185185  1
  Ti  Ti3074  1  0.64285714  0.57142857  0.35185185  1
  Ti  Ti3075  1  0.64285714  0.64285714  0.35185185  1
  Ti  Ti3076  1  0.64285714  0.71428571  0.35185185  1
  Ti  Ti3077  1  0.64285714  0.78571429  0.35185185  1
  Ti  Ti3078  1  0.64285714  0.85714286  0.35185185  1
  Ti  Ti3079  1  0.64285714  0.92857143  0.35185185  1
  Ti  Ti3080  1  0.71428571  0.00000000  0.35185185  1
  Ti  Ti3081  1  0.71428571  0.07142857  0.35185185  1
  Ti  Ti3082  1  0.71428571  0.14285714  0.35185185  1
  Ti  Ti3083  1  0.71428571  0.21428571  0.35185185  1
  Ti  Ti3084  1  0.71428571  0.28571429  0.35185185  1
  Ti  Ti3085  1  0.71428571  0.35714286  0.35185185  1
  Ti  Ti3086  1  0.71428571  0.42857143  0.35185185  1
  Ti  Ti3087  1  0.71428571  0.50000000  0.35185185  1
  Ti  Ti3088  1  0.71428571  0.57142857  0.35185185  1
  Ti  Ti3089  1  0.71428571  0.64285714  0.35185185  1
  Ti  Ti3090  1  0.71428571  0.71428571  0.35185185  1
  Ti  Ti3091  1  0.71428571  0.78571429  0.35185185  1
  Ti  Ti3092  1  0.71428571  0.85714286  0.35185185  1
  Ti  Ti3093  1  0.71428571  0.92857143  0.35185185  1
  Ti  Ti3094  1  0.78571429  0.00000000  0.35185185  1
  Ti  Ti3095  1  0.78571429  0.07142857  0.35185185  1
  Ti  Ti3096  1  0.78571429  0.14285714  0.35185185  1
  Ti  Ti3097  1  0.78571429  0.21428571  0.35185185  1
  Ti  Ti3098  1  0.78571429  0.28571429  0.35185185  1
  Ti  Ti3099  1  0.78571429  0.35714286  0.35185185  1
  Ti  Ti3100  1  0.78571429  0.42857143  0.35185185  1
  Ti  Ti3101  1  0.78571429  0.50000000  0.35185185  1
  Ti  Ti3102  1  0.78571429  0.57142857  0.35185185  1
  Ti  Ti3103  1  0.78571429  0.64285714  0.35185185  1
  Ti  Ti3104  1  0.78571429  0.71428571  0.35185185  1
  Ti  Ti3105  1  0.78571429  0.78571429  0.35185185  1
  Ti  Ti3106  1  0.78571429  0.85714286  0.35185185  1
  Ti  Ti3107  1  0.78571429  0.92857143  0.35185185  1
  Ti  Ti3108  1  0.85714286  0.00000000  0.35185185  1
  Ti  Ti3109  1  0.85714286  0.07142857  0.35185185  1
  Ti  Ti3110  1  0.85714286  0.14285714  0.35185185  1
  Ti  Ti3111  1  0.85714286  0.21428571  0.35185185  1
  Ti  Ti3112  1  0.85714286  0.28571429  0.35185185  1
  Ti  Ti3113  1  0.85714286  0.35714286  0.35185185  1
  Ti  Ti3114  1  0.85714286  0.42857143  0.35185185  1
  Ti  Ti3115  1  0.85714286  0.50000000  0.35185185  1
  Ti  Ti3116  1  0.85714286  0.57142857  0.35185185  1
  Ti  Ti3117  1  0.85714286  0.64285714  0.35185185  1
  Ti  Ti3118  1  0.85714286  0.71428571  0.35185185  1
  Ti  Ti3119  1  0.85714286  0.78571429  0.35185185  1
  Ti  Ti3120  1  0.85714286  0.85714286  0.35185185  1
  Ti  Ti3121  1  0.85714286  0.92857143  0.35185185  1
  Ti  Ti3122  1  0.92857143  0.00000000  0.35185185  1
  Ti  Ti3123  1  0.92857143  0.07142857  0.35185185  1
  Ti  Ti3124  1  0.92857143  0.14285714  0.35185185  1
  Ti  Ti3125  1  0.92857143  0.21428571  0.35185185  1
  Ti  Ti3126  1  0.92857143  0.28571429  0.35185185  1
  Ti  Ti3127  1  0.92857143  0.35714286  0.35185185  1
  Ti  Ti3128  1  0.92857143  0.42857143  0.35185185  1
  Ti  Ti3129  1  0.92857143  0.50000000  0.35185185  1
  Ti  Ti3130  1  0.92857143  0.57142857  0.35185185  1
  Ti  Ti3131  1  0.92857143  0.64285714  0.35185185  1
  Ti  Ti3132  1  0.92857143  0.71428571  0.35185185  1
  Ti  Ti3133  1  0.92857143  0.78571429  0.35185185  1
  Ti  Ti3134  1  0.92857143  0.85714286  0.35185185  1
  Ti  Ti3135  1  0.92857143  0.92857143  0.35185185  1
  Ti  Ti3136  1  0.02380950  0.04761907  0.34074074  1
  Ti  Ti3137  1  0.02380950  0.11904764  0.34074074  1
  Ti  Ti3138  1  0.02380950  0.19047621  0.34074074  1
  Ti  Ti3139  1  0.02380950  0.26190479  0.34074074  1
  Ti  Ti3140  1  0.02380950  0.33333336  0.34074074  1
  Ti  Ti3141  1  0.02380950  0.40476193  0.34074074  1
  Ti  Ti3142  1  0.02380950  0.47619050  0.34074074  1
  Ti  Ti3143  1  0.02380950  0.54761907  0.34074074  1
  Ti  Ti3144  1  0.02380950  0.61904764  0.34074074  1
  Ti  Ti3145  1  0.02380950  0.69047621  0.34074074  1
  Ti  Ti3146  1  0.02380950  0.76190479  0.34074074  1
  Ti  Ti3147  1  0.02380950  0.83333336  0.34074074  1
  Ti  Ti3148  1  0.02380950  0.90476193  0.34074074  1
  Ti  Ti3149  1  0.02380950  0.97619050  0.34074074  1
  Ti  Ti3150  1  0.09523807  0.04761907  0.34074074  1
  Ti  Ti3151  1  0.09523807  0.11904764  0.34074074  1
  Ti  Ti3152  1  0.09523807  0.19047621  0.34074074  1
  Ti  Ti3153  1  0.09523807  0.26190479  0.34074074  1
  Ti  Ti3154  1  0.09523807  0.33333336  0.34074074  1
  Ti  Ti3155  1  0.09523807  0.40476193  0.34074074  1
  Ti  Ti3156  1  0.09523807  0.47619050  0.34074074  1
  Ti  Ti3157  1  0.09523807  0.54761907  0.34074074  1
  Ti  Ti3158  1  0.09523807  0.61904764  0.34074074  1
  Ti  Ti3159  1  0.09523807  0.69047621  0.34074074  1
  Ti  Ti3160  1  0.09523807  0.76190479  0.34074074  1
  Ti  Ti3161  1  0.09523807  0.83333336  0.34074074  1
  Ti  Ti3162  1  0.09523807  0.90476193  0.34074074  1
  Ti  Ti3163  1  0.09523807  0.97619050  0.34074074  1
  Ti  Ti3164  1  0.16666664  0.04761907  0.34074074  1
  Ti  Ti3165  1  0.16666664  0.11904764  0.34074074  1
  Ti  Ti3166  1  0.16666664  0.19047621  0.34074074  1
  Ti  Ti3167  1  0.16666664  0.26190479  0.34074074  1
  Ti  Ti3168  1  0.16666664  0.33333336  0.34074074  1
  Ti  Ti3169  1  0.16666664  0.40476193  0.34074074  1
  Ti  Ti3170  1  0.16666664  0.47619050  0.34074074  1
  Ti  Ti3171  1  0.16666664  0.54761907  0.34074074  1
  Ti  Ti3172  1  0.16666664  0.61904764  0.34074074  1
  Ti  Ti3173  1  0.16666664  0.69047621  0.34074074  1
  Ti  Ti3174  1  0.16666664  0.76190479  0.34074074  1
  Ti  Ti3175  1  0.16666664  0.83333336  0.34074074  1
  Ti  Ti3176  1  0.16666664  0.90476193  0.34074074  1
  Ti  Ti3177  1  0.16666664  0.97619050  0.34074074  1
  Ti  Ti3178  1  0.23809521  0.04761907  0.34074074  1
  Ti  Ti3179  1  0.23809521  0.11904764  0.34074074  1
  Ti  Ti3180  1  0.23809521  0.19047621  0.34074074  1
  Ti  Ti3181  1  0.23809521  0.26190479  0.34074074  1
  Ti  Ti3182  1  0.23809521  0.33333336  0.34074074  1
  Ti  Ti3183  1  0.23809521  0.40476193  0.34074074  1
  Ti  Ti3184  1  0.23809521  0.47619050  0.34074074  1
  Ti  Ti3185  1  0.23809521  0.54761907  0.34074074  1
  Ti  Ti3186  1  0.23809521  0.61904764  0.34074074  1
  Ti  Ti3187  1  0.23809521  0.69047621  0.34074074  1
  Ti  Ti3188  1  0.23809521  0.76190479  0.34074074  1
  Ti  Ti3189  1  0.23809521  0.83333336  0.34074074  1
  Ti  Ti3190  1  0.23809521  0.90476193  0.34074074  1
  Ti  Ti3191  1  0.23809521  0.97619050  0.34074074  1
  Ti  Ti3192  1  0.30952379  0.04761907  0.34074074  1
  Ti  Ti3193  1  0.30952379  0.11904764  0.34074074  1
  Ti  Ti3194  1  0.30952379  0.19047621  0.34074074  1
  Ti  Ti3195  1  0.30952379  0.26190479  0.34074074  1
  Ti  Ti3196  1  0.30952379  0.33333336  0.34074074  1
  Ti  Ti3197  1  0.30952379  0.40476193  0.34074074  1
  Ti  Ti3198  1  0.30952379  0.47619050  0.34074074  1
  Ti  Ti3199  1  0.30952379  0.54761907  0.34074074  1
  Ti  Ti3200  1  0.30952379  0.61904764  0.34074074  1
  Ti  Ti3201  1  0.30952379  0.69047621  0.34074074  1
  Ti  Ti3202  1  0.30952379  0.76190479  0.34074074  1
  Ti  Ti3203  1  0.30952379  0.83333336  0.34074074  1
  Ti  Ti3204  1  0.30952379  0.90476193  0.34074074  1
  Ti  Ti3205  1  0.30952379  0.97619050  0.34074074  1
  Ti  Ti3206  1  0.38095236  0.04761907  0.34074074  1
  Ti  Ti3207  1  0.38095236  0.11904764  0.34074074  1
  Ti  Ti3208  1  0.38095236  0.19047621  0.34074074  1
  Ti  Ti3209  1  0.38095236  0.26190479  0.34074074  1
  Ti  Ti3210  1  0.38095236  0.33333336  0.34074074  1
  Ti  Ti3211  1  0.38095236  0.40476193  0.34074074  1
  Ti  Ti3212  1  0.38095236  0.47619050  0.34074074  1
  Ti  Ti3213  1  0.38095236  0.54761907  0.34074074  1
  Ti  Ti3214  1  0.38095236  0.61904764  0.34074074  1
  Ti  Ti3215  1  0.38095236  0.69047621  0.34074074  1
  Ti  Ti3216  1  0.38095236  0.76190479  0.34074074  1
  Ti  Ti3217  1  0.38095236  0.83333336  0.34074074  1
  Ti  Ti3218  1  0.38095236  0.90476193  0.34074074  1
  Ti  Ti3219  1  0.38095236  0.97619050  0.34074074  1
  Ti  Ti3220  1  0.45238093  0.04761907  0.34074074  1
  Ti  Ti3221  1  0.45238093  0.11904764  0.34074074  1
  Ti  Ti3222  1  0.45238093  0.19047621  0.34074074  1
  Ti  Ti3223  1  0.45238093  0.26190479  0.34074074  1
  Ti  Ti3224  1  0.45238093  0.33333336  0.34074074  1
  Ti  Ti3225  1  0.45238093  0.40476193  0.34074074  1
  Ti  Ti3226  1  0.45238093  0.47619050  0.34074074  1
  Ti  Ti3227  1  0.45238093  0.54761907  0.34074074  1
  Ti  Ti3228  1  0.45238093  0.61904764  0.34074074  1
  Ti  Ti3229  1  0.45238093  0.69047621  0.34074074  1
  Ti  Ti3230  1  0.45238093  0.76190479  0.34074074  1
  Ti  Ti3231  1  0.45238093  0.83333336  0.34074074  1
  Ti  Ti3232  1  0.45238093  0.90476193  0.34074074  1
  Ti  Ti3233  1  0.45238093  0.97619050  0.34074074  1
  Ti  Ti3234  1  0.52380950  0.04761907  0.34074074  1
  Ti  Ti3235  1  0.52380950  0.11904764  0.34074074  1
  Ti  Ti3236  1  0.52380950  0.19047621  0.34074074  1
  Ti  Ti3237  1  0.52380950  0.26190479  0.34074074  1
  Ti  Ti3238  1  0.52380950  0.33333336  0.34074074  1
  Ti  Ti3239  1  0.52380950  0.40476193  0.34074074  1
  Ti  Ti3240  1  0.52380950  0.47619050  0.34074074  1
  Ti  Ti3241  1  0.52380950  0.54761907  0.34074074  1
  Ti  Ti3242  1  0.52380950  0.61904764  0.34074074  1
  Ti  Ti3243  1  0.52380950  0.69047621  0.34074074  1
  Ti  Ti3244  1  0.52380950  0.76190479  0.34074074  1
  Ti  Ti3245  1  0.52380950  0.83333336  0.34074074  1
  Ti  Ti3246  1  0.52380950  0.90476193  0.34074074  1
  Ti  Ti3247  1  0.52380950  0.97619050  0.34074074  1
  Ti  Ti3248  1  0.59523807  0.04761907  0.34074074  1
  Ti  Ti3249  1  0.59523807  0.11904764  0.34074074  1
  Ti  Ti3250  1  0.59523807  0.19047621  0.34074074  1
  Ti  Ti3251  1  0.59523807  0.26190479  0.34074074  1
  Ti  Ti3252  1  0.59523807  0.33333336  0.34074074  1
  Ti  Ti3253  1  0.59523807  0.40476193  0.34074074  1
  Ti  Ti3254  1  0.59523807  0.47619050  0.34074074  1
  Ti  Ti3255  1  0.59523807  0.54761907  0.34074074  1
  Ti  Ti3256  1  0.59523807  0.61904764  0.34074074  1
  Ti  Ti3257  1  0.59523807  0.69047621  0.34074074  1
  Ti  Ti3258  1  0.59523807  0.76190479  0.34074074  1
  Ti  Ti3259  1  0.59523807  0.83333336  0.34074074  1
  Ti  Ti3260  1  0.59523807  0.90476193  0.34074074  1
  Ti  Ti3261  1  0.59523807  0.97619050  0.34074074  1
  Ti  Ti3262  1  0.66666664  0.04761907  0.34074074  1
  Ti  Ti3263  1  0.66666664  0.11904764  0.34074074  1
  Ti  Ti3264  1  0.66666664  0.19047621  0.34074074  1
  Ti  Ti3265  1  0.66666664  0.26190479  0.34074074  1
  Ti  Ti3266  1  0.66666664  0.33333336  0.34074074  1
  Ti  Ti3267  1  0.66666664  0.40476193  0.34074074  1
  Ti  Ti3268  1  0.66666664  0.47619050  0.34074074  1
  Ti  Ti3269  1  0.66666664  0.54761907  0.34074074  1
  Ti  Ti3270  1  0.66666664  0.61904764  0.34074074  1
  Ti  Ti3271  1  0.66666664  0.69047621  0.34074074  1
  Ti  Ti3272  1  0.66666664  0.76190479  0.34074074  1
  Ti  Ti3273  1  0.66666664  0.83333336  0.34074074  1
  Ti  Ti3274  1  0.66666664  0.90476193  0.34074074  1
  Ti  Ti3275  1  0.66666664  0.97619050  0.34074074  1
  Ti  Ti3276  1  0.73809521  0.04761907  0.34074074  1
  Ti  Ti3277  1  0.73809521  0.11904764  0.34074074  1
  Ti  Ti3278  1  0.73809521  0.19047621  0.34074074  1
  Ti  Ti3279  1  0.73809521  0.26190479  0.34074074  1
  Ti  Ti3280  1  0.73809521  0.33333336  0.34074074  1
  Ti  Ti3281  1  0.73809521  0.40476193  0.34074074  1
  Ti  Ti3282  1  0.73809521  0.47619050  0.34074074  1
  Ti  Ti3283  1  0.73809521  0.54761907  0.34074074  1
  Ti  Ti3284  1  0.73809521  0.61904764  0.34074074  1
  Ti  Ti3285  1  0.73809521  0.69047621  0.34074074  1
  Ti  Ti3286  1  0.73809521  0.76190479  0.34074074  1
  Ti  Ti3287  1  0.73809521  0.83333336  0.34074074  1
  Ti  Ti3288  1  0.73809521  0.90476193  0.34074074  1
  Ti  Ti3289  1  0.73809521  0.97619050  0.34074074  1
  Ti  Ti3290  1  0.80952379  0.04761907  0.34074074  1
  Ti  Ti3291  1  0.80952379  0.11904764  0.34074074  1
  Ti  Ti3292  1  0.80952379  0.19047621  0.34074074  1
  Ti  Ti3293  1  0.80952379  0.26190479  0.34074074  1
  Ti  Ti3294  1  0.80952379  0.33333336  0.34074074  1
  Ti  Ti3295  1  0.80952379  0.40476193  0.34074074  1
  Ti  Ti3296  1  0.80952379  0.47619050  0.34074074  1
  Ti  Ti3297  1  0.80952379  0.54761907  0.34074074  1
  Ti  Ti3298  1  0.80952379  0.61904764  0.34074074  1
  Ti  Ti3299  1  0.80952379  0.69047621  0.34074074  1
  Ti  Ti3300  1  0.80952379  0.76190479  0.34074074  1
  Ti  Ti3301  1  0.80952379  0.83333336  0.34074074  1
  Ti  Ti3302  1  0.80952379  0.90476193  0.34074074  1
  Ti  Ti3303  1  0.80952379  0.97619050  0.34074074  1
  Ti  Ti3304  1  0.88095236  0.04761907  0.34074074  1
  Ti  Ti3305  1  0.88095236  0.11904764  0.34074074  1
  Ti  Ti3306  1  0.88095236  0.19047621  0.34074074  1
  Ti  Ti3307  1  0.88095236  0.26190479  0.34074074  1
  Ti  Ti3308  1  0.88095236  0.33333336  0.34074074  1
  Ti  Ti3309  1  0.88095236  0.40476193  0.34074074  1
  Ti  Ti3310  1  0.88095236  0.47619050  0.34074074  1
  Ti  Ti3311  1  0.88095236  0.54761907  0.34074074  1
  Ti  Ti3312  1  0.88095236  0.61904764  0.34074074  1
  Ti  Ti3313  1  0.88095236  0.69047621  0.34074074  1
  Ti  Ti3314  1  0.88095236  0.76190479  0.34074074  1
  Ti  Ti3315  1  0.88095236  0.83333336  0.34074074  1
  Ti  Ti3316  1  0.88095236  0.90476193  0.34074074  1
  Ti  Ti3317  1  0.88095236  0.97619050  0.34074074  1
  Ti  Ti3318  1  0.95238093  0.04761907  0.34074074  1
  Ti  Ti3319  1  0.95238093  0.11904764  0.34074074  1
  Ti  Ti3320  1  0.95238093  0.19047621  0.34074074  1
  Ti  Ti3321  1  0.95238093  0.26190479  0.34074074  1
  Ti  Ti3322  1  0.95238093  0.33333336  0.34074074  1
  Ti  Ti3323  1  0.95238093  0.40476193  0.34074074  1
  Ti  Ti3324  1  0.95238093  0.47619050  0.34074074  1
  Ti  Ti3325  1  0.95238093  0.54761907  0.34074074  1
  Ti  Ti3326  1  0.95238093  0.61904764  0.34074074  1
  Ti  Ti3327  1  0.95238093  0.69047621  0.34074074  1
  Ti  Ti3328  1  0.95238093  0.76190479  0.34074074  1
  Ti  Ti3329  1  0.95238093  0.83333336  0.34074074  1
  Ti  Ti3330  1  0.95238093  0.90476193  0.34074074  1
  Ti  Ti3331  1  0.95238093  0.97619050  0.34074074  1
  Ti  Ti3332  1  0.04761907  0.02380950  0.34074074  1
  Ti  Ti3333  1  0.04761907  0.09523807  0.34074074  1
  Ti  Ti3334  1  0.04761907  0.16666664  0.34074074  1
  Ti  Ti3335  1  0.04761907  0.23809521  0.34074074  1
  Ti  Ti3336  1  0.04761907  0.30952379  0.34074074  1
  Ti  Ti3337  1  0.04761907  0.38095236  0.34074074  1
  Ti  Ti3338  1  0.04761907  0.45238093  0.34074074  1
  Ti  Ti3339  1  0.04761907  0.52380950  0.34074074  1
  Ti  Ti3340  1  0.04761907  0.59523807  0.34074074  1
  Ti  Ti3341  1  0.04761907  0.66666664  0.34074074  1
  Ti  Ti3342  1  0.04761907  0.73809521  0.34074074  1
  Ti  Ti3343  1  0.04761907  0.80952379  0.34074074  1
  Ti  Ti3344  1  0.04761907  0.88095236  0.34074074  1
  Ti  Ti3345  1  0.04761907  0.95238093  0.34074074  1
  Ti  Ti3346  1  0.11904764  0.02380950  0.34074074  1
  Ti  Ti3347  1  0.11904764  0.09523807  0.34074074  1
  Ti  Ti3348  1  0.11904764  0.16666664  0.34074074  1
  Ti  Ti3349  1  0.11904764  0.23809521  0.34074074  1
  Ti  Ti3350  1  0.11904764  0.30952379  0.34074074  1
  Ti  Ti3351  1  0.11904764  0.38095236  0.34074074  1
  Ti  Ti3352  1  0.11904764  0.45238093  0.34074074  1
  Ti  Ti3353  1  0.11904764  0.52380950  0.34074074  1
  Ti  Ti3354  1  0.11904764  0.59523807  0.34074074  1
  Ti  Ti3355  1  0.11904764  0.66666664  0.34074074  1
  Ti  Ti3356  1  0.11904764  0.73809521  0.34074074  1
  Ti  Ti3357  1  0.11904764  0.80952379  0.34074074  1
  Ti  Ti3358  1  0.11904764  0.88095236  0.34074074  1
  Ti  Ti3359  1  0.11904764  0.95238093  0.34074074  1
  Ti  Ti3360  1  0.19047621  0.02380950  0.34074074  1
  Ti  Ti3361  1  0.19047621  0.09523807  0.34074074  1
  Ti  Ti3362  1  0.19047621  0.16666664  0.34074074  1
  Ti  Ti3363  1  0.19047621  0.23809521  0.34074074  1
  Ti  Ti3364  1  0.19047621  0.30952379  0.34074074  1
  Ti  Ti3365  1  0.19047621  0.38095236  0.34074074  1
  Ti  Ti3366  1  0.19047621  0.45238093  0.34074074  1
  Ti  Ti3367  1  0.19047621  0.52380950  0.34074074  1
  Ti  Ti3368  1  0.19047621  0.59523807  0.34074074  1
  Ti  Ti3369  1  0.19047621  0.66666664  0.34074074  1
  Ti  Ti3370  1  0.19047621  0.73809521  0.34074074  1
  Ti  Ti3371  1  0.19047621  0.80952379  0.34074074  1
  Ti  Ti3372  1  0.19047621  0.88095236  0.34074074  1
  Ti  Ti3373  1  0.19047621  0.95238093  0.34074074  1
  Ti  Ti3374  1  0.26190479  0.02380950  0.34074074  1
  Ti  Ti3375  1  0.26190479  0.09523807  0.34074074  1
  Ti  Ti3376  1  0.26190479  0.16666664  0.34074074  1
  Ti  Ti3377  1  0.26190479  0.23809521  0.34074074  1
  Ti  Ti3378  1  0.26190479  0.30952379  0.34074074  1
  Ti  Ti3379  1  0.26190479  0.38095236  0.34074074  1
  Ti  Ti3380  1  0.26190479  0.45238093  0.34074074  1
  Ti  Ti3381  1  0.26190479  0.52380950  0.34074074  1
  Ti  Ti3382  1  0.26190479  0.59523807  0.34074074  1
  Ti  Ti3383  1  0.26190479  0.66666664  0.34074074  1
  Ti  Ti3384  1  0.26190479  0.73809521  0.34074074  1
  Ti  Ti3385  1  0.26190479  0.80952379  0.34074074  1
  Ti  Ti3386  1  0.26190479  0.88095236  0.34074074  1
  Ti  Ti3387  1  0.26190479  0.95238093  0.34074074  1
  Ti  Ti3388  1  0.33333336  0.02380950  0.34074074  1
  Ti  Ti3389  1  0.33333336  0.09523807  0.34074074  1
  Ti  Ti3390  1  0.33333336  0.16666664  0.34074074  1
  Ti  Ti3391  1  0.33333336  0.23809521  0.34074074  1
  Ti  Ti3392  1  0.33333336  0.30952379  0.34074074  1
  Ti  Ti3393  1  0.33333336  0.38095236  0.34074074  1
  Ti  Ti3394  1  0.33333336  0.45238093  0.34074074  1
  Ti  Ti3395  1  0.33333336  0.52380950  0.34074074  1
  Ti  Ti3396  1  0.33333336  0.59523807  0.34074074  1
  Ti  Ti3397  1  0.33333336  0.66666664  0.34074074  1
  Ti  Ti3398  1  0.33333336  0.73809521  0.34074074  1
  Ti  Ti3399  1  0.33333336  0.80952379  0.34074074  1
  Ti  Ti3400  1  0.33333336  0.88095236  0.34074074  1
  Ti  Ti3401  1  0.33333336  0.95238093  0.34074074  1
  Ti  Ti3402  1  0.40476193  0.02380950  0.34074074  1
  Ti  Ti3403  1  0.40476193  0.09523807  0.34074074  1
  Ti  Ti3404  1  0.40476193  0.16666664  0.34074074  1
  Ti  Ti3405  1  0.40476193  0.23809521  0.34074074  1
  Ti  Ti3406  1  0.40476193  0.30952379  0.34074074  1
  Ti  Ti3407  1  0.40476193  0.38095236  0.34074074  1
  Ti  Ti3408  1  0.40476193  0.45238093  0.34074074  1
  Ti  Ti3409  1  0.40476193  0.52380950  0.34074074  1
  Ti  Ti3410  1  0.40476193  0.59523807  0.34074074  1
  Ti  Ti3411  1  0.40476193  0.66666664  0.34074074  1
  Ti  Ti3412  1  0.40476193  0.73809521  0.34074074  1
  Ti  Ti3413  1  0.40476193  0.80952379  0.34074074  1
  Ti  Ti3414  1  0.40476193  0.88095236  0.34074074  1
  Ti  Ti3415  1  0.40476193  0.95238093  0.34074074  1
  Ti  Ti3416  1  0.47619050  0.02380950  0.34074074  1
  Ti  Ti3417  1  0.47619050  0.09523807  0.34074074  1
  Ti  Ti3418  1  0.47619050  0.16666664  0.34074074  1
  Ti  Ti3419  1  0.47619050  0.23809521  0.34074074  1
  Ti  Ti3420  1  0.47619050  0.30952379  0.34074074  1
  Ti  Ti3421  1  0.47619050  0.38095236  0.34074074  1
  Ti  Ti3422  1  0.47619050  0.45238093  0.34074074  1
  Ti  Ti3423  1  0.47619050  0.52380950  0.34074074  1
  Ti  Ti3424  1  0.47619050  0.59523807  0.34074074  1
  Ti  Ti3425  1  0.47619050  0.66666664  0.34074074  1
  Ti  Ti3426  1  0.47619050  0.73809521  0.34074074  1
  Ti  Ti3427  1  0.47619050  0.80952379  0.34074074  1
  Ti  Ti3428  1  0.47619050  0.88095236  0.34074074  1
  Ti  Ti3429  1  0.47619050  0.95238093  0.34074074  1
  Ti  Ti3430  1  0.54761907  0.02380950  0.34074074  1
  Ti  Ti3431  1  0.54761907  0.09523807  0.34074074  1
  Ti  Ti3432  1  0.54761907  0.16666664  0.34074074  1
  Ti  Ti3433  1  0.54761907  0.23809521  0.34074074  1
  Ti  Ti3434  1  0.54761907  0.30952379  0.34074074  1
  Ti  Ti3435  1  0.54761907  0.38095236  0.34074074  1
  Ti  Ti3436  1  0.54761907  0.45238093  0.34074074  1
  Ti  Ti3437  1  0.54761907  0.52380950  0.34074074  1
  Ti  Ti3438  1  0.54761907  0.59523807  0.34074074  1
  Ti  Ti3439  1  0.54761907  0.66666664  0.34074074  1
  Ti  Ti3440  1  0.54761907  0.73809521  0.34074074  1
  Ti  Ti3441  1  0.54761907  0.80952379  0.34074074  1
  Ti  Ti3442  1  0.54761907  0.88095236  0.34074074  1
  Ti  Ti3443  1  0.54761907  0.95238093  0.34074074  1
  Ti  Ti3444  1  0.61904764  0.02380950  0.34074074  1
  Ti  Ti3445  1  0.61904764  0.09523807  0.34074074  1
  Ti  Ti3446  1  0.61904764  0.16666664  0.34074074  1
  Ti  Ti3447  1  0.61904764  0.23809521  0.34074074  1
  Ti  Ti3448  1  0.61904764  0.30952379  0.34074074  1
  Ti  Ti3449  1  0.61904764  0.38095236  0.34074074  1
  Ti  Ti3450  1  0.61904764  0.45238093  0.34074074  1
  Ti  Ti3451  1  0.61904764  0.52380950  0.34074074  1
  Ti  Ti3452  1  0.61904764  0.59523807  0.34074074  1
  Ti  Ti3453  1  0.61904764  0.66666664  0.34074074  1
  Ti  Ti3454  1  0.61904764  0.73809521  0.34074074  1
  Ti  Ti3455  1  0.61904764  0.80952379  0.34074074  1
  Ti  Ti3456  1  0.61904764  0.88095236  0.34074074  1
  Ti  Ti3457  1  0.61904764  0.95238093  0.34074074  1
  Ti  Ti3458  1  0.69047621  0.02380950  0.34074074  1
  Ti  Ti3459  1  0.69047621  0.09523807  0.34074074  1
  Ti  Ti3460  1  0.69047621  0.16666664  0.34074074  1
  Ti  Ti3461  1  0.69047621  0.23809521  0.34074074  1
  Ti  Ti3462  1  0.69047621  0.30952379  0.34074074  1
  Ti  Ti3463  1  0.69047621  0.38095236  0.34074074  1
  Ti  Ti3464  1  0.69047621  0.45238093  0.34074074  1
  Ti  Ti3465  1  0.69047621  0.52380950  0.34074074  1
  Ti  Ti3466  1  0.69047621  0.59523807  0.34074074  1
  Ti  Ti3467  1  0.69047621  0.66666664  0.34074074  1
  Ti  Ti3468  1  0.69047621  0.73809521  0.34074074  1
  Ti  Ti3469  1  0.69047621  0.80952379  0.34074074  1
  Ti  Ti3470  1  0.69047621  0.88095236  0.34074074  1
  Ti  Ti3471  1  0.69047621  0.95238093  0.34074074  1
  Ti  Ti3472  1  0.76190479  0.02380950  0.34074074  1
  Ti  Ti3473  1  0.76190479  0.09523807  0.34074074  1
  Ti  Ti3474  1  0.76190479  0.16666664  0.34074074  1
  Ti  Ti3475  1  0.76190479  0.23809521  0.34074074  1
  Ti  Ti3476  1  0.76190479  0.30952379  0.34074074  1
  Ti  Ti3477  1  0.76190479  0.38095236  0.34074074  1
  Ti  Ti3478  1  0.76190479  0.45238093  0.34074074  1
  Ti  Ti3479  1  0.76190479  0.52380950  0.34074074  1
  Ti  Ti3480  1  0.76190479  0.59523807  0.34074074  1
  Ti  Ti3481  1  0.76190479  0.66666664  0.34074074  1
  Ti  Ti3482  1  0.76190479  0.73809521  0.34074074  1
  Ti  Ti3483  1  0.76190479  0.80952379  0.34074074  1
  Ti  Ti3484  1  0.76190479  0.88095236  0.34074074  1
  Ti  Ti3485  1  0.76190479  0.95238093  0.34074074  1
  Ti  Ti3486  1  0.83333336  0.02380950  0.34074074  1
  Ti  Ti3487  1  0.83333336  0.09523807  0.34074074  1
  Ti  Ti3488  1  0.83333336  0.16666664  0.34074074  1
  Ti  Ti3489  1  0.83333336  0.23809521  0.34074074  1
  Ti  Ti3490  1  0.83333336  0.30952379  0.34074074  1
  Ti  Ti3491  1  0.83333336  0.38095236  0.34074074  1
  Ti  Ti3492  1  0.83333336  0.45238093  0.34074074  1
  Ti  Ti3493  1  0.83333336  0.52380950  0.34074074  1
  Ti  Ti3494  1  0.83333336  0.59523807  0.34074074  1
  Ti  Ti3495  1  0.83333336  0.66666664  0.34074074  1
  Ti  Ti3496  1  0.83333336  0.73809521  0.34074074  1
  Ti  Ti3497  1  0.83333336  0.80952379  0.34074074  1
  Ti  Ti3498  1  0.83333336  0.88095236  0.34074074  1
  Ti  Ti3499  1  0.83333336  0.95238093  0.34074074  1
  Ti  Ti3500  1  0.90476193  0.02380950  0.34074074  1
  Ti  Ti3501  1  0.90476193  0.09523807  0.34074074  1
  Ti  Ti3502  1  0.90476193  0.16666664  0.34074074  1
  Ti  Ti3503  1  0.90476193  0.23809521  0.34074074  1
  Ti  Ti3504  1  0.90476193  0.30952379  0.34074074  1
  Ti  Ti3505  1  0.90476193  0.38095236  0.34074074  1
  Ti  Ti3506  1  0.90476193  0.45238093  0.34074074  1
  Ti  Ti3507  1  0.90476193  0.52380950  0.34074074  1
  Ti  Ti3508  1  0.90476193  0.59523807  0.34074074  1
  Ti  Ti3509  1  0.90476193  0.66666664  0.34074074  1
  Ti  Ti3510  1  0.90476193  0.73809521  0.34074074  1
  Ti  Ti3511  1  0.90476193  0.80952379  0.34074074  1
  Ti  Ti3512  1  0.90476193  0.88095236  0.34074074  1
  Ti  Ti3513  1  0.90476193  0.95238093  0.34074074  1
  Ti  Ti3514  1  0.97619050  0.02380950  0.34074074  1
  Ti  Ti3515  1  0.97619050  0.09523807  0.34074074  1
  Ti  Ti3516  1  0.97619050  0.16666664  0.34074074  1
  Ti  Ti3517  1  0.97619050  0.23809521  0.34074074  1
  Ti  Ti3518  1  0.97619050  0.30952379  0.34074074  1
  Ti  Ti3519  1  0.97619050  0.38095236  0.34074074  1
  Ti  Ti3520  1  0.97619050  0.45238093  0.34074074  1
  Ti  Ti3521  1  0.97619050  0.52380950  0.34074074  1
  Ti  Ti3522  1  0.97619050  0.59523807  0.34074074  1
  Ti  Ti3523  1  0.97619050  0.66666664  0.34074074  1
  Ti  Ti3524  1  0.97619050  0.73809521  0.34074074  1
  Ti  Ti3525  1  0.97619050  0.80952379  0.34074074  1
  Ti  Ti3526  1  0.97619050  0.88095236  0.34074074  1
  Ti  Ti3527  1  0.97619050  0.95238093  0.34074074  1
  Ti  Ti3528  1  0.00000000  0.00000000  0.37407407  1
  Ti  Ti3529  1  0.00000000  0.07142857  0.37407407  1
  Ti  Ti3530  1  0.00000000  0.14285714  0.37407407  1
  Ti  Ti3531  1  0.00000000  0.21428571  0.37407407  1
  Ti  Ti3532  1  0.00000000  0.28571429  0.37407407  1
  Ti  Ti3533  1  0.00000000  0.35714286  0.37407407  1
  Ti  Ti3534  1  0.00000000  0.42857143  0.37407407  1
  Ti  Ti3535  1  0.00000000  0.50000000  0.37407407  1
  Ti  Ti3536  1  0.00000000  0.57142857  0.37407407  1
  Ti  Ti3537  1  0.00000000  0.64285714  0.37407407  1
  Ti  Ti3538  1  0.00000000  0.71428571  0.37407407  1
  Ti  Ti3539  1  1.00000000  0.78571429  0.37407407  1
  Ti  Ti3540  1  0.00000000  0.85714286  0.37407407  1
  Ti  Ti3541  1  0.00000000  0.92857143  0.37407407  1
  Ti  Ti3542  1  0.07142857  0.00000000  0.37407407  1
  Ti  Ti3543  1  0.07142857  0.07142857  0.37407407  1
  Ti  Ti3544  1  0.07142857  0.14285714  0.37407407  1
  Ti  Ti3545  1  0.07142857  0.21428571  0.37407407  1
  Ti  Ti3546  1  0.07142857  0.28571429  0.37407407  1
  Ti  Ti3547  1  0.07142857  0.35714286  0.37407407  1
  Ti  Ti3548  1  0.07142857  0.42857143  0.37407407  1
  Ti  Ti3549  1  0.07142857  0.50000000  0.37407407  1
  Ti  Ti3550  1  0.07142857  0.57142857  0.37407407  1
  Ti  Ti3551  1  0.07142857  0.64285714  0.37407407  1
  Ti  Ti3552  1  0.07142857  0.71428571  0.37407407  1
  Ti  Ti3553  1  0.07142857  0.78571429  0.37407407  1
  Ti  Ti3554  1  0.07142857  0.85714286  0.37407407  1
  Ti  Ti3555  1  0.07142857  0.92857143  0.37407407  1
  Ti  Ti3556  1  0.14285714  0.00000000  0.37407407  1
  Ti  Ti3557  1  0.14285714  0.07142857  0.37407407  1
  Ti  Ti3558  1  0.14285714  0.14285714  0.37407407  1
  Ti  Ti3559  1  0.14285714  0.21428571  0.37407407  1
  Ti  Ti3560  1  0.14285714  0.28571429  0.37407407  1
  Ti  Ti3561  1  0.14285714  0.35714286  0.37407407  1
  Ti  Ti3562  1  0.14285714  0.42857143  0.37407407  1
  Ti  Ti3563  1  0.14285714  0.50000000  0.37407407  1
  Ti  Ti3564  1  0.14285714  0.57142857  0.37407407  1
  Ti  Ti3565  1  0.14285714  0.64285714  0.37407407  1
  Ti  Ti3566  1  0.14285714  0.71428571  0.37407407  1
  Ti  Ti3567  1  0.14285714  0.78571429  0.37407407  1
  Ti  Ti3568  1  0.14285714  0.85714286  0.37407407  1
  Ti  Ti3569  1  0.14285714  0.92857143  0.37407407  1
  Ti  Ti3570  1  0.21428571  0.00000000  0.37407407  1
  Ti  Ti3571  1  0.21428571  0.07142857  0.37407407  1
  Ti  Ti3572  1  0.21428571  0.14285714  0.37407407  1
  Ti  Ti3573  1  0.21428571  0.21428571  0.37407407  1
  Ti  Ti3574  1  0.21428571  0.28571429  0.37407407  1
  Ti  Ti3575  1  0.21428571  0.35714286  0.37407407  1
  Ti  Ti3576  1  0.21428571  0.42857143  0.37407407  1
  Ti  Ti3577  1  0.21428571  0.50000000  0.37407407  1
  Ti  Ti3578  1  0.21428571  0.57142857  0.37407407  1
  Ti  Ti3579  1  0.21428571  0.64285714  0.37407407  1
  Ti  Ti3580  1  0.21428571  0.71428571  0.37407407  1
  Ti  Ti3581  1  0.21428571  0.78571429  0.37407407  1
  Ti  Ti3582  1  0.21428571  0.85714286  0.37407407  1
  Ti  Ti3583  1  0.21428571  0.92857143  0.37407407  1
  Ti  Ti3584  1  0.28571429  0.00000000  0.37407407  1
  Ti  Ti3585  1  0.28571429  0.07142857  0.37407407  1
  Ti  Ti3586  1  0.28571429  0.14285714  0.37407407  1
  Ti  Ti3587  1  0.28571429  0.21428571  0.37407407  1
  Ti  Ti3588  1  0.28571429  0.28571429  0.37407407  1
  Ti  Ti3589  1  0.28571429  0.35714286  0.37407407  1
  Ti  Ti3590  1  0.28571429  0.42857143  0.37407407  1
  Ti  Ti3591  1  0.28571429  0.50000000  0.37407407  1
  Ti  Ti3592  1  0.28571429  0.57142857  0.37407407  1
  Ti  Ti3593  1  0.28571429  0.64285714  0.37407407  1
  Ti  Ti3594  1  0.28571429  0.71428571  0.37407407  1
  Ti  Ti3595  1  0.28571429  0.78571429  0.37407407  1
  Ti  Ti3596  1  0.28571429  0.85714286  0.37407407  1
  Ti  Ti3597  1  0.28571429  0.92857143  0.37407407  1
  Ti  Ti3598  1  0.35714286  0.00000000  0.37407407  1
  Ti  Ti3599  1  0.35714286  0.07142857  0.37407407  1
  Ti  Ti3600  1  0.35714286  0.14285714  0.37407407  1
  Ti  Ti3601  1  0.35714286  0.21428571  0.37407407  1
  Ti  Ti3602  1  0.35714286  0.28571429  0.37407407  1
  Ti  Ti3603  1  0.35714286  0.35714286  0.37407407  1
  Ti  Ti3604  1  0.35714286  0.42857143  0.37407407  1
  Ti  Ti3605  1  0.35714286  0.50000000  0.37407407  1
  Ti  Ti3606  1  0.35714286  0.57142857  0.37407407  1
  Ti  Ti3607  1  0.35714286  0.64285714  0.37407407  1
  Ti  Ti3608  1  0.35714286  0.71428571  0.37407407  1
  Ti  Ti3609  1  0.35714286  0.78571429  0.37407407  1
  Ti  Ti3610  1  0.35714286  0.85714286  0.37407407  1
  Ti  Ti3611  1  0.35714286  0.92857143  0.37407407  1
  Ti  Ti3612  1  0.42857143  0.00000000  0.37407407  1
  Ti  Ti3613  1  0.42857143  0.07142857  0.37407407  1
  Ti  Ti3614  1  0.42857143  0.14285714  0.37407407  1
  Ti  Ti3615  1  0.42857143  0.21428571  0.37407407  1
  Ti  Ti3616  1  0.42857143  0.28571429  0.37407407  1
  Ti  Ti3617  1  0.42857143  0.35714286  0.37407407  1
  Ti  Ti3618  1  0.42857143  0.42857143  0.37407407  1
  Ti  Ti3619  1  0.42857143  0.50000000  0.37407407  1
  Ti  Ti3620  1  0.42857143  0.57142857  0.37407407  1
  Ti  Ti3621  1  0.42857143  0.64285714  0.37407407  1
  Ti  Ti3622  1  0.42857143  0.71428571  0.37407407  1
  Ti  Ti3623  1  0.42857143  0.78571429  0.37407407  1
  Ti  Ti3624  1  0.42857143  0.85714286  0.37407407  1
  Ti  Ti3625  1  0.42857143  0.92857143  0.37407407  1
  Ti  Ti3626  1  0.50000000  0.00000000  0.37407407  1
  Ti  Ti3627  1  0.50000000  0.07142857  0.37407407  1
  Ti  Ti3628  1  0.50000000  0.14285714  0.37407407  1
  Ti  Ti3629  1  0.50000000  0.21428571  0.37407407  1
  Ti  Ti3630  1  0.50000000  0.28571429  0.37407407  1
  Ti  Ti3631  1  0.50000000  0.35714286  0.37407407  1
  Ti  Ti3632  1  0.50000000  0.42857143  0.37407407  1
  Ti  Ti3633  1  0.50000000  0.50000000  0.37407407  1
  Ti  Ti3634  1  0.50000000  0.57142857  0.37407407  1
  Ti  Ti3635  1  0.50000000  0.64285714  0.37407407  1
  Ti  Ti3636  1  0.50000000  0.71428571  0.37407407  1
  Ti  Ti3637  1  0.50000000  0.78571429  0.37407407  1
  Ti  Ti3638  1  0.50000000  0.85714286  0.37407407  1
  Ti  Ti3639  1  0.50000000  0.92857143  0.37407407  1
  Ti  Ti3640  1  0.57142857  0.00000000  0.37407407  1
  Ti  Ti3641  1  0.57142857  0.07142857  0.37407407  1
  Ti  Ti3642  1  0.57142857  0.14285714  0.37407407  1
  Ti  Ti3643  1  0.57142857  0.21428571  0.37407407  1
  Ti  Ti3644  1  0.57142857  0.28571429  0.37407407  1
  Ti  Ti3645  1  0.57142857  0.35714286  0.37407407  1
  Ti  Ti3646  1  0.57142857  0.42857143  0.37407407  1
  Ti  Ti3647  1  0.57142857  0.50000000  0.37407407  1
  Ti  Ti3648  1  0.57142857  0.57142857  0.37407407  1
  Ti  Ti3649  1  0.57142857  0.64285714  0.37407407  1
  Ti  Ti3650  1  0.57142857  0.71428571  0.37407407  1
  Ti  Ti3651  1  0.57142857  0.78571429  0.37407407  1
  Ti  Ti3652  1  0.57142857  0.85714286  0.37407407  1
  Ti  Ti3653  1  0.57142857  0.92857143  0.37407407  1
  Ti  Ti3654  1  0.64285714  0.00000000  0.37407407  1
  Ti  Ti3655  1  0.64285714  0.07142857  0.37407407  1
  Ti  Ti3656  1  0.64285714  0.14285714  0.37407407  1
  Ti  Ti3657  1  0.64285714  0.21428571  0.37407407  1
  Ti  Ti3658  1  0.64285714  0.28571429  0.37407407  1
  Ti  Ti3659  1  0.64285714  0.35714286  0.37407407  1
  Ti  Ti3660  1  0.64285714  0.42857143  0.37407407  1
  Ti  Ti3661  1  0.64285714  0.50000000  0.37407407  1
  Ti  Ti3662  1  0.64285714  0.57142857  0.37407407  1
  Ti  Ti3663  1  0.64285714  0.64285714  0.37407407  1
  Ti  Ti3664  1  0.64285714  0.71428571  0.37407407  1
  Ti  Ti3665  1  0.64285714  0.78571429  0.37407407  1
  Ti  Ti3666  1  0.64285714  0.85714286  0.37407407  1
  Ti  Ti3667  1  0.64285714  0.92857143  0.37407407  1
  Ti  Ti3668  1  0.71428571  0.00000000  0.37407407  1
  Ti  Ti3669  1  0.71428571  0.07142857  0.37407407  1
  Ti  Ti3670  1  0.71428571  0.14285714  0.37407407  1
  Ti  Ti3671  1  0.71428571  0.21428571  0.37407407  1
  Ti  Ti3672  1  0.71428571  0.28571429  0.37407407  1
  Ti  Ti3673  1  0.71428571  0.35714286  0.37407407  1
  Ti  Ti3674  1  0.71428571  0.42857143  0.37407407  1
  Ti  Ti3675  1  0.71428571  0.50000000  0.37407407  1
  Ti  Ti3676  1  0.71428571  0.57142857  0.37407407  1
  Ti  Ti3677  1  0.71428571  0.64285714  0.37407407  1
  Ti  Ti3678  1  0.71428571  0.71428571  0.37407407  1
  Ti  Ti3679  1  0.71428571  0.78571429  0.37407407  1
  Ti  Ti3680  1  0.71428571  0.85714286  0.37407407  1
  Ti  Ti3681  1  0.71428571  0.92857143  0.37407407  1
  Ti  Ti3682  1  0.78571429  0.00000000  0.37407407  1
  Ti  Ti3683  1  0.78571429  0.07142857  0.37407407  1
  Ti  Ti3684  1  0.78571429  0.14285714  0.37407407  1
  Ti  Ti3685  1  0.78571429  0.21428571  0.37407407  1
  Ti  Ti3686  1  0.78571429  0.28571429  0.37407407  1
  Ti  Ti3687  1  0.78571429  0.35714286  0.37407407  1
  Ti  Ti3688  1  0.78571429  0.42857143  0.37407407  1
  Ti  Ti3689  1  0.78571429  0.50000000  0.37407407  1
  Ti  Ti3690  1  0.78571429  0.57142857  0.37407407  1
  Ti  Ti3691  1  0.78571429  0.64285714  0.37407407  1
  Ti  Ti3692  1  0.78571429  0.71428571  0.37407407  1
  Ti  Ti3693  1  0.78571429  0.78571429  0.37407407  1
  Ti  Ti3694  1  0.78571429  0.85714286  0.37407407  1
  Ti  Ti3695  1  0.78571429  0.92857143  0.37407407  1
  Ti  Ti3696  1  0.85714286  0.00000000  0.37407407  1
  Ti  Ti3697  1  0.85714286  0.07142857  0.37407407  1
  Ti  Ti3698  1  0.85714286  0.14285714  0.37407407  1
  Ti  Ti3699  1  0.85714286  0.21428571  0.37407407  1
  Ti  Ti3700  1  0.85714286  0.28571429  0.37407407  1
  Ti  Ti3701  1  0.85714286  0.35714286  0.37407407  1
  Ti  Ti3702  1  0.85714286  0.42857143  0.37407407  1
  Ti  Ti3703  1  0.85714286  0.50000000  0.37407407  1
  Ti  Ti3704  1  0.85714286  0.57142857  0.37407407  1
  Ti  Ti3705  1  0.85714286  0.64285714  0.37407407  1
  Ti  Ti3706  1  0.85714286  0.71428571  0.37407407  1
  Ti  Ti3707  1  0.85714286  0.78571429  0.37407407  1
  Ti  Ti3708  1  0.85714286  0.85714286  0.37407407  1
  Ti  Ti3709  1  0.85714286  0.92857143  0.37407407  1
  Ti  Ti3710  1  0.92857143  0.00000000  0.37407407  1
  Ti  Ti3711  1  0.92857143  0.07142857  0.37407407  1
  Ti  Ti3712  1  0.92857143  0.14285714  0.37407407  1
  Ti  Ti3713  1  0.92857143  0.21428571  0.37407407  1
  Ti  Ti3714  1  0.92857143  0.28571429  0.37407407  1
  Ti  Ti3715  1  0.92857143  0.35714286  0.37407407  1
  Ti  Ti3716  1  0.92857143  0.42857143  0.37407407  1
  Ti  Ti3717  1  0.92857143  0.50000000  0.37407407  1
  Ti  Ti3718  1  0.92857143  0.57142857  0.37407407  1
  Ti  Ti3719  1  0.92857143  0.64285714  0.37407407  1
  Ti  Ti3720  1  0.92857143  0.71428571  0.37407407  1
  Ti  Ti3721  1  0.92857143  0.78571429  0.37407407  1
  Ti  Ti3722  1  0.92857143  0.85714286  0.37407407  1
  Ti  Ti3723  1  0.92857143  0.92857143  0.37407407  1
  Ti  Ti3724  1  0.02380950  0.04761907  0.36296296  1
  Ti  Ti3725  1  0.02380950  0.11904764  0.36296296  1
  Ti  Ti3726  1  0.02380950  0.19047621  0.36296296  1
  Ti  Ti3727  1  0.02380950  0.26190479  0.36296296  1
  Ti  Ti3728  1  0.02380950  0.33333336  0.36296296  1
  Ti  Ti3729  1  0.02380950  0.40476193  0.36296296  1
  Ti  Ti3730  1  0.02380950  0.47619050  0.36296296  1
  Ti  Ti3731  1  0.02380950  0.54761907  0.36296296  1
  Ti  Ti3732  1  0.02380950  0.61904764  0.36296296  1
  Ti  Ti3733  1  0.02380950  0.69047621  0.36296296  1
  Ti  Ti3734  1  0.02380950  0.76190479  0.36296296  1
  Ti  Ti3735  1  0.02380950  0.83333336  0.36296296  1
  Ti  Ti3736  1  0.02380950  0.90476193  0.36296296  1
  Ti  Ti3737  1  0.02380950  0.97619050  0.36296296  1
  Ti  Ti3738  1  0.09523807  0.04761907  0.36296296  1
  Ti  Ti3739  1  0.09523807  0.11904764  0.36296296  1
  Ti  Ti3740  1  0.09523807  0.19047621  0.36296296  1
  Ti  Ti3741  1  0.09523807  0.26190479  0.36296296  1
  Ti  Ti3742  1  0.09523807  0.33333336  0.36296296  1
  Ti  Ti3743  1  0.09523807  0.40476193  0.36296296  1
  Ti  Ti3744  1  0.09523807  0.47619050  0.36296296  1
  Ti  Ti3745  1  0.09523807  0.54761907  0.36296296  1
  Ti  Ti3746  1  0.09523807  0.61904764  0.36296296  1
  Ti  Ti3747  1  0.09523807  0.69047621  0.36296296  1
  Ti  Ti3748  1  0.09523807  0.76190479  0.36296296  1
  Ti  Ti3749  1  0.09523807  0.83333336  0.36296296  1
  Ti  Ti3750  1  0.09523807  0.90476193  0.36296296  1
  Ti  Ti3751  1  0.09523807  0.97619050  0.36296296  1
  Ti  Ti3752  1  0.16666664  0.04761907  0.36296296  1
  Ti  Ti3753  1  0.16666664  0.11904764  0.36296296  1
  Ti  Ti3754  1  0.16666664  0.19047621  0.36296296  1
  Ti  Ti3755  1  0.16666664  0.26190479  0.36296296  1
  Ti  Ti3756  1  0.16666664  0.33333336  0.36296296  1
  Ti  Ti3757  1  0.16666664  0.40476193  0.36296296  1
  Ti  Ti3758  1  0.16666664  0.47619050  0.36296296  1
  Ti  Ti3759  1  0.16666664  0.54761907  0.36296296  1
  Ti  Ti3760  1  0.16666664  0.61904764  0.36296296  1
  Ti  Ti3761  1  0.16666664  0.69047621  0.36296296  1
  Ti  Ti3762  1  0.16666664  0.76190479  0.36296296  1
  Ti  Ti3763  1  0.16666664  0.83333336  0.36296296  1
  Ti  Ti3764  1  0.16666664  0.90476193  0.36296296  1
  Ti  Ti3765  1  0.16666664  0.97619050  0.36296296  1
  Ti  Ti3766  1  0.23809521  0.04761907  0.36296296  1
  Ti  Ti3767  1  0.23809521  0.11904764  0.36296296  1
  Ti  Ti3768  1  0.23809521  0.19047621  0.36296296  1
  Ti  Ti3769  1  0.23809521  0.26190479  0.36296296  1
  Ti  Ti3770  1  0.23809521  0.33333336  0.36296296  1
  Ti  Ti3771  1  0.23809521  0.40476193  0.36296296  1
  Ti  Ti3772  1  0.23809521  0.47619050  0.36296296  1
  Ti  Ti3773  1  0.23809521  0.54761907  0.36296296  1
  Ti  Ti3774  1  0.23809521  0.61904764  0.36296296  1
  Ti  Ti3775  1  0.23809521  0.69047621  0.36296296  1
  Ti  Ti3776  1  0.23809521  0.76190479  0.36296296  1
  Ti  Ti3777  1  0.23809521  0.83333336  0.36296296  1
  Ti  Ti3778  1  0.23809521  0.90476193  0.36296296  1
  Ti  Ti3779  1  0.23809521  0.97619050  0.36296296  1
  Ti  Ti3780  1  0.30952379  0.04761907  0.36296296  1
  Ti  Ti3781  1  0.30952379  0.11904764  0.36296296  1
  Ti  Ti3782  1  0.30952379  0.19047621  0.36296296  1
  Ti  Ti3783  1  0.30952379  0.26190479  0.36296296  1
  Ti  Ti3784  1  0.30952379  0.33333336  0.36296296  1
  Ti  Ti3785  1  0.30952379  0.40476193  0.36296296  1
  Ti  Ti3786  1  0.30952379  0.47619050  0.36296296  1
  Ti  Ti3787  1  0.30952379  0.54761907  0.36296296  1
  Ti  Ti3788  1  0.30952379  0.61904764  0.36296296  1
  Ti  Ti3789  1  0.30952379  0.69047621  0.36296296  1
  Ti  Ti3790  1  0.30952379  0.76190479  0.36296296  1
  Ti  Ti3791  1  0.30952379  0.83333336  0.36296296  1
  Ti  Ti3792  1  0.30952379  0.90476193  0.36296296  1
  Ti  Ti3793  1  0.30952379  0.97619050  0.36296296  1
  Ti  Ti3794  1  0.38095236  0.04761907  0.36296296  1
  Ti  Ti3795  1  0.38095236  0.11904764  0.36296296  1
  Ti  Ti3796  1  0.38095236  0.19047621  0.36296296  1
  Ti  Ti3797  1  0.38095236  0.26190479  0.36296296  1
  Ti  Ti3798  1  0.38095236  0.33333336  0.36296296  1
  Ti  Ti3799  1  0.38095236  0.40476193  0.36296296  1
  Ti  Ti3800  1  0.38095236  0.47619050  0.36296296  1
  Ti  Ti3801  1  0.38095236  0.54761907  0.36296296  1
  Ti  Ti3802  1  0.38095236  0.61904764  0.36296296  1
  Ti  Ti3803  1  0.38095236  0.69047621  0.36296296  1
  Ti  Ti3804  1  0.38095236  0.76190479  0.36296296  1
  Ti  Ti3805  1  0.38095236  0.83333336  0.36296296  1
  Ti  Ti3806  1  0.38095236  0.90476193  0.36296296  1
  Ti  Ti3807  1  0.38095236  0.97619050  0.36296296  1
  Ti  Ti3808  1  0.45238093  0.04761907  0.36296296  1
  Ti  Ti3809  1  0.45238093  0.11904764  0.36296296  1
  Ti  Ti3810  1  0.45238093  0.19047621  0.36296296  1
  Ti  Ti3811  1  0.45238093  0.26190479  0.36296296  1
  Ti  Ti3812  1  0.45238093  0.33333336  0.36296296  1
  Ti  Ti3813  1  0.45238093  0.40476193  0.36296296  1
  Ti  Ti3814  1  0.45238093  0.47619050  0.36296296  1
  Ti  Ti3815  1  0.45238093  0.54761907  0.36296296  1
  Ti  Ti3816  1  0.45238093  0.61904764  0.36296296  1
  Ti  Ti3817  1  0.45238093  0.69047621  0.36296296  1
  Ti  Ti3818  1  0.45238093  0.76190479  0.36296296  1
  Ti  Ti3819  1  0.45238093  0.83333336  0.36296296  1
  Ti  Ti3820  1  0.45238093  0.90476193  0.36296296  1
  Ti  Ti3821  1  0.45238093  0.97619050  0.36296296  1
  Ti  Ti3822  1  0.52380950  0.04761907  0.36296296  1
  Ti  Ti3823  1  0.52380950  0.11904764  0.36296296  1
  Ti  Ti3824  1  0.52380950  0.19047621  0.36296296  1
  Ti  Ti3825  1  0.52380950  0.26190479  0.36296296  1
  Ti  Ti3826  1  0.52380950  0.33333336  0.36296296  1
  Ti  Ti3827  1  0.52380950  0.40476193  0.36296296  1
  Ti  Ti3828  1  0.52380950  0.47619050  0.36296296  1
  Ti  Ti3829  1  0.52380950  0.54761907  0.36296296  1
  Ti  Ti3830  1  0.52380950  0.61904764  0.36296296  1
  Ti  Ti3831  1  0.52380950  0.69047621  0.36296296  1
  Ti  Ti3832  1  0.52380950  0.76190479  0.36296296  1
  Ti  Ti3833  1  0.52380950  0.83333336  0.36296296  1
  Ti  Ti3834  1  0.52380950  0.90476193  0.36296296  1
  Ti  Ti3835  1  0.52380950  0.97619050  0.36296296  1
  Ti  Ti3836  1  0.59523807  0.04761907  0.36296296  1
  Ti  Ti3837  1  0.59523807  0.11904764  0.36296296  1
  Ti  Ti3838  1  0.59523807  0.19047621  0.36296296  1
  Ti  Ti3839  1  0.59523807  0.26190479  0.36296296  1
  Ti  Ti3840  1  0.59523807  0.33333336  0.36296296  1
  Ti  Ti3841  1  0.59523807  0.40476193  0.36296296  1
  Ti  Ti3842  1  0.59523807  0.47619050  0.36296296  1
  Ti  Ti3843  1  0.59523807  0.54761907  0.36296296  1
  Ti  Ti3844  1  0.59523807  0.61904764  0.36296296  1
  Ti  Ti3845  1  0.59523807  0.69047621  0.36296296  1
  Ti  Ti3846  1  0.59523807  0.76190479  0.36296296  1
  Ti  Ti3847  1  0.59523807  0.83333336  0.36296296  1
  Ti  Ti3848  1  0.59523807  0.90476193  0.36296296  1
  Ti  Ti3849  1  0.59523807  0.97619050  0.36296296  1
  Ti  Ti3850  1  0.66666664  0.04761907  0.36296296  1
  Ti  Ti3851  1  0.66666664  0.11904764  0.36296296  1
  Ti  Ti3852  1  0.66666664  0.19047621  0.36296296  1
  Ti  Ti3853  1  0.66666664  0.26190479  0.36296296  1
  Ti  Ti3854  1  0.66666664  0.33333336  0.36296296  1
  Ti  Ti3855  1  0.66666664  0.40476193  0.36296296  1
  Ti  Ti3856  1  0.66666664  0.47619050  0.36296296  1
  Ti  Ti3857  1  0.66666664  0.54761907  0.36296296  1
  Ti  Ti3858  1  0.66666664  0.61904764  0.36296296  1
  Ti  Ti3859  1  0.66666664  0.69047621  0.36296296  1
  Ti  Ti3860  1  0.66666664  0.76190479  0.36296296  1
  Ti  Ti3861  1  0.66666664  0.83333336  0.36296296  1
  Ti  Ti3862  1  0.66666664  0.90476193  0.36296296  1
  Ti  Ti3863  1  0.66666664  0.97619050  0.36296296  1
  Ti  Ti3864  1  0.73809521  0.04761907  0.36296296  1
  Ti  Ti3865  1  0.73809521  0.11904764  0.36296296  1
  Ti  Ti3866  1  0.73809521  0.19047621  0.36296296  1
  Ti  Ti3867  1  0.73809521  0.26190479  0.36296296  1
  Ti  Ti3868  1  0.73809521  0.33333336  0.36296296  1
  Ti  Ti3869  1  0.73809521  0.40476193  0.36296296  1
  Ti  Ti3870  1  0.73809521  0.47619050  0.36296296  1
  Ti  Ti3871  1  0.73809521  0.54761907  0.36296296  1
  Ti  Ti3872  1  0.73809521  0.61904764  0.36296296  1
  Ti  Ti3873  1  0.73809521  0.69047621  0.36296296  1
  Ti  Ti3874  1  0.73809521  0.76190479  0.36296296  1
  Ti  Ti3875  1  0.73809521  0.83333336  0.36296296  1
  Ti  Ti3876  1  0.73809521  0.90476193  0.36296296  1
  Ti  Ti3877  1  0.73809521  0.97619050  0.36296296  1
  Ti  Ti3878  1  0.80952379  0.04761907  0.36296296  1
  Ti  Ti3879  1  0.80952379  0.11904764  0.36296296  1
  Ti  Ti3880  1  0.80952379  0.19047621  0.36296296  1
  Ti  Ti3881  1  0.80952379  0.26190479  0.36296296  1
  Ti  Ti3882  1  0.80952379  0.33333336  0.36296296  1
  Ti  Ti3883  1  0.80952379  0.40476193  0.36296296  1
  Ti  Ti3884  1  0.80952379  0.47619050  0.36296296  1
  Ti  Ti3885  1  0.80952379  0.54761907  0.36296296  1
  Ti  Ti3886  1  0.80952379  0.61904764  0.36296296  1
  Ti  Ti3887  1  0.80952379  0.69047621  0.36296296  1
  Ti  Ti3888  1  0.80952379  0.76190479  0.36296296  1
  Ti  Ti3889  1  0.80952379  0.83333336  0.36296296  1
  Ti  Ti3890  1  0.80952379  0.90476193  0.36296296  1
  Ti  Ti3891  1  0.80952379  0.97619050  0.36296296  1
  Ti  Ti3892  1  0.88095236  0.04761907  0.36296296  1
  Ti  Ti3893  1  0.88095236  0.11904764  0.36296296  1
  Ti  Ti3894  1  0.88095236  0.19047621  0.36296296  1
  Ti  Ti3895  1  0.88095236  0.26190479  0.36296296  1
  Ti  Ti3896  1  0.88095236  0.33333336  0.36296296  1
  Ti  Ti3897  1  0.88095236  0.40476193  0.36296296  1
  Ti  Ti3898  1  0.88095236  0.47619050  0.36296296  1
  Ti  Ti3899  1  0.88095236  0.54761907  0.36296296  1
  Ti  Ti3900  1  0.88095236  0.61904764  0.36296296  1
  Ti  Ti3901  1  0.88095236  0.69047621  0.36296296  1
  Ti  Ti3902  1  0.88095236  0.76190479  0.36296296  1
  Ti  Ti3903  1  0.88095236  0.83333336  0.36296296  1
  Ti  Ti3904  1  0.88095236  0.90476193  0.36296296  1
  Ti  Ti3905  1  0.88095236  0.97619050  0.36296296  1
  Ti  Ti3906  1  0.95238093  0.04761907  0.36296296  1
  Ti  Ti3907  1  0.95238093  0.11904764  0.36296296  1
  Ti  Ti3908  1  0.95238093  0.19047621  0.36296296  1
  Ti  Ti3909  1  0.95238093  0.26190479  0.36296296  1
  Ti  Ti3910  1  0.95238093  0.33333336  0.36296296  1
  Ti  Ti3911  1  0.95238093  0.40476193  0.36296296  1
  Ti  Ti3912  1  0.95238093  0.47619050  0.36296296  1
  Ti  Ti3913  1  0.95238093  0.54761907  0.36296296  1
  Ti  Ti3914  1  0.95238093  0.61904764  0.36296296  1
  Ti  Ti3915  1  0.95238093  0.69047621  0.36296296  1
  Ti  Ti3916  1  0.95238093  0.76190479  0.36296296  1
  Ti  Ti3917  1  0.95238093  0.83333336  0.36296296  1
  Ti  Ti3918  1  0.95238093  0.90476193  0.36296296  1
  Ti  Ti3919  1  0.95238093  0.97619050  0.36296296  1
  Ti  Ti3920  1  0.04761907  0.02380950  0.36296296  1
  Ti  Ti3921  1  0.04761907  0.09523807  0.36296296  1
  Ti  Ti3922  1  0.04761907  0.16666664  0.36296296  1
  Ti  Ti3923  1  0.04761907  0.23809521  0.36296296  1
  Ti  Ti3924  1  0.04761907  0.30952379  0.36296296  1
  Ti  Ti3925  1  0.04761907  0.38095236  0.36296296  1
  Ti  Ti3926  1  0.04761907  0.45238093  0.36296296  1
  Ti  Ti3927  1  0.04761907  0.52380950  0.36296296  1
  Ti  Ti3928  1  0.04761907  0.59523807  0.36296296  1
  Ti  Ti3929  1  0.04761907  0.66666664  0.36296296  1
  Ti  Ti3930  1  0.04761907  0.73809521  0.36296296  1
  Ti  Ti3931  1  0.04761907  0.80952379  0.36296296  1
  Ti  Ti3932  1  0.04761907  0.88095236  0.36296296  1
  Ti  Ti3933  1  0.04761907  0.95238093  0.36296296  1
  Ti  Ti3934  1  0.11904764  0.02380950  0.36296296  1
  Ti  Ti3935  1  0.11904764  0.09523807  0.36296296  1
  Ti  Ti3936  1  0.11904764  0.16666664  0.36296296  1
  Ti  Ti3937  1  0.11904764  0.23809521  0.36296296  1
  Ti  Ti3938  1  0.11904764  0.30952379  0.36296296  1
  Ti  Ti3939  1  0.11904764  0.38095236  0.36296296  1
  Ti  Ti3940  1  0.11904764  0.45238093  0.36296296  1
  Ti  Ti3941  1  0.11904764  0.52380950  0.36296296  1
  Ti  Ti3942  1  0.11904764  0.59523807  0.36296296  1
  Ti  Ti3943  1  0.11904764  0.66666664  0.36296296  1
  Ti  Ti3944  1  0.11904764  0.73809521  0.36296296  1
  Ti  Ti3945  1  0.11904764  0.80952379  0.36296296  1
  Ti  Ti3946  1  0.11904764  0.88095236  0.36296296  1
  Ti  Ti3947  1  0.11904764  0.95238093  0.36296296  1
  Ti  Ti3948  1  0.19047621  0.02380950  0.36296296  1
  Ti  Ti3949  1  0.19047621  0.09523807  0.36296296  1
  Ti  Ti3950  1  0.19047621  0.16666664  0.36296296  1
  Ti  Ti3951  1  0.19047621  0.23809521  0.36296296  1
  Ti  Ti3952  1  0.19047621  0.30952379  0.36296296  1
  Ti  Ti3953  1  0.19047621  0.38095236  0.36296296  1
  Ti  Ti3954  1  0.19047621  0.45238093  0.36296296  1
  Ti  Ti3955  1  0.19047621  0.52380950  0.36296296  1
  Ti  Ti3956  1  0.19047621  0.59523807  0.36296296  1
  Ti  Ti3957  1  0.19047621  0.66666664  0.36296296  1
  Ti  Ti3958  1  0.19047621  0.73809521  0.36296296  1
  Ti  Ti3959  1  0.19047621  0.80952379  0.36296296  1
  Ti  Ti3960  1  0.19047621  0.88095236  0.36296296  1
  Ti  Ti3961  1  0.19047621  0.95238093  0.36296296  1
  Ti  Ti3962  1  0.26190479  0.02380950  0.36296296  1
  Ti  Ti3963  1  0.26190479  0.09523807  0.36296296  1
  Ti  Ti3964  1  0.26190479  0.16666664  0.36296296  1
  Ti  Ti3965  1  0.26190479  0.23809521  0.36296296  1
  Ti  Ti3966  1  0.26190479  0.30952379  0.36296296  1
  Ti  Ti3967  1  0.26190479  0.38095236  0.36296296  1
  Ti  Ti3968  1  0.26190479  0.45238093  0.36296296  1
  Ti  Ti3969  1  0.26190479  0.52380950  0.36296296  1
  Ti  Ti3970  1  0.26190479  0.59523807  0.36296296  1
  Ti  Ti3971  1  0.26190479  0.66666664  0.36296296  1
  Ti  Ti3972  1  0.26190479  0.73809521  0.36296296  1
  Ti  Ti3973  1  0.26190479  0.80952379  0.36296296  1
  Ti  Ti3974  1  0.26190479  0.88095236  0.36296296  1
  Ti  Ti3975  1  0.26190479  0.95238093  0.36296296  1
  Ti  Ti3976  1  0.33333336  0.02380950  0.36296296  1
  Ti  Ti3977  1  0.33333336  0.09523807  0.36296296  1
  Ti  Ti3978  1  0.33333336  0.16666664  0.36296296  1
  Ti  Ti3979  1  0.33333336  0.23809521  0.36296296  1
  Ti  Ti3980  1  0.33333336  0.30952379  0.36296296  1
  Ti  Ti3981  1  0.33333336  0.38095236  0.36296296  1
  Ti  Ti3982  1  0.33333336  0.45238093  0.36296296  1
  Ti  Ti3983  1  0.33333336  0.52380950  0.36296296  1
  Ti  Ti3984  1  0.33333336  0.59523807  0.36296296  1
  Ti  Ti3985  1  0.33333336  0.66666664  0.36296296  1
  Ti  Ti3986  1  0.33333336  0.73809521  0.36296296  1
  Ti  Ti3987  1  0.33333336  0.80952379  0.36296296  1
  Ti  Ti3988  1  0.33333336  0.88095236  0.36296296  1
  Ti  Ti3989  1  0.33333336  0.95238093  0.36296296  1
  Ti  Ti3990  1  0.40476193  0.02380950  0.36296296  1
  Ti  Ti3991  1  0.40476193  0.09523807  0.36296296  1
  Ti  Ti3992  1  0.40476193  0.16666664  0.36296296  1
  Ti  Ti3993  1  0.40476193  0.23809521  0.36296296  1
  Ti  Ti3994  1  0.40476193  0.30952379  0.36296296  1
  Ti  Ti3995  1  0.40476193  0.38095236  0.36296296  1
  Ti  Ti3996  1  0.40476193  0.45238093  0.36296296  1
  Ti  Ti3997  1  0.40476193  0.52380950  0.36296296  1
  Ti  Ti3998  1  0.40476193  0.59523807  0.36296296  1
  Ti  Ti3999  1  0.40476193  0.66666664  0.36296296  1
  Ti  Ti4000  1  0.40476193  0.73809521  0.36296296  1
  Ti  Ti4001  1  0.40476193  0.80952379  0.36296296  1
  Ti  Ti4002  1  0.40476193  0.88095236  0.36296296  1
  Ti  Ti4003  1  0.40476193  0.95238093  0.36296296  1
  Ti  Ti4004  1  0.47619050  0.02380950  0.36296296  1
  Ti  Ti4005  1  0.47619050  0.09523807  0.36296296  1
  Ti  Ti4006  1  0.47619050  0.16666664  0.36296296  1
  Ti  Ti4007  1  0.47619050  0.23809521  0.36296296  1
  Ti  Ti4008  1  0.47619050  0.30952379  0.36296296  1
  Ti  Ti4009  1  0.47619050  0.38095236  0.36296296  1
  Ti  Ti4010  1  0.47619050  0.45238093  0.36296296  1
  Ti  Ti4011  1  0.47619050  0.52380950  0.36296296  1
  Ti  Ti4012  1  0.47619050  0.59523807  0.36296296  1
  Ti  Ti4013  1  0.47619050  0.66666664  0.36296296  1
  Ti  Ti4014  1  0.47619050  0.73809521  0.36296296  1
  Ti  Ti4015  1  0.47619050  0.80952379  0.36296296  1
  Ti  Ti4016  1  0.47619050  0.88095236  0.36296296  1
  Ti  Ti4017  1  0.47619050  0.95238093  0.36296296  1
  Ti  Ti4018  1  0.54761907  0.02380950  0.36296296  1
  Ti  Ti4019  1  0.54761907  0.09523807  0.36296296  1
  Ti  Ti4020  1  0.54761907  0.16666664  0.36296296  1
  Ti  Ti4021  1  0.54761907  0.23809521  0.36296296  1
  Ti  Ti4022  1  0.54761907  0.30952379  0.36296296  1
  Ti  Ti4023  1  0.54761907  0.38095236  0.36296296  1
  Ti  Ti4024  1  0.54761907  0.45238093  0.36296296  1
  Ti  Ti4025  1  0.54761907  0.52380950  0.36296296  1
  Ti  Ti4026  1  0.54761907  0.59523807  0.36296296  1
  Ti  Ti4027  1  0.54761907  0.66666664  0.36296296  1
  Ti  Ti4028  1  0.54761907  0.73809521  0.36296296  1
  Ti  Ti4029  1  0.54761907  0.80952379  0.36296296  1
  Ti  Ti4030  1  0.54761907  0.88095236  0.36296296  1
  Ti  Ti4031  1  0.54761907  0.95238093  0.36296296  1
  Ti  Ti4032  1  0.61904764  0.02380950  0.36296296  1
  Ti  Ti4033  1  0.61904764  0.09523807  0.36296296  1
  Ti  Ti4034  1  0.61904764  0.16666664  0.36296296  1
  Ti  Ti4035  1  0.61904764  0.23809521  0.36296296  1
  Ti  Ti4036  1  0.61904764  0.30952379  0.36296296  1
  Ti  Ti4037  1  0.61904764  0.38095236  0.36296296  1
  Ti  Ti4038  1  0.61904764  0.45238093  0.36296296  1
  Ti  Ti4039  1  0.61904764  0.52380950  0.36296296  1
  Ti  Ti4040  1  0.61904764  0.59523807  0.36296296  1
  Ti  Ti4041  1  0.61904764  0.66666664  0.36296296  1
  Ti  Ti4042  1  0.61904764  0.73809521  0.36296296  1
  Ti  Ti4043  1  0.61904764  0.80952379  0.36296296  1
  Ti  Ti4044  1  0.61904764  0.88095236  0.36296296  1
  Ti  Ti4045  1  0.61904764  0.95238093  0.36296296  1
  Ti  Ti4046  1  0.69047621  0.02380950  0.36296296  1
  Ti  Ti4047  1  0.69047621  0.09523807  0.36296296  1
  Ti  Ti4048  1  0.69047621  0.16666664  0.36296296  1
  Ti  Ti4049  1  0.69047621  0.23809521  0.36296296  1
  Ti  Ti4050  1  0.69047621  0.30952379  0.36296296  1
  Ti  Ti4051  1  0.69047621  0.38095236  0.36296296  1
  Ti  Ti4052  1  0.69047621  0.45238093  0.36296296  1
  Ti  Ti4053  1  0.69047621  0.52380950  0.36296296  1
  Ti  Ti4054  1  0.69047621  0.59523807  0.36296296  1
  Ti  Ti4055  1  0.69047621  0.66666664  0.36296296  1
  Ti  Ti4056  1  0.69047621  0.73809521  0.36296296  1
  Ti  Ti4057  1  0.69047621  0.80952379  0.36296296  1
  Ti  Ti4058  1  0.69047621  0.88095236  0.36296296  1
  Ti  Ti4059  1  0.69047621  0.95238093  0.36296296  1
  Ti  Ti4060  1  0.76190479  0.02380950  0.36296296  1
  Ti  Ti4061  1  0.76190479  0.09523807  0.36296296  1
  Ti  Ti4062  1  0.76190479  0.16666664  0.36296296  1
  Ti  Ti4063  1  0.76190479  0.23809521  0.36296296  1
  Ti  Ti4064  1  0.76190479  0.30952379  0.36296296  1
  Ti  Ti4065  1  0.76190479  0.38095236  0.36296296  1
  Ti  Ti4066  1  0.76190479  0.45238093  0.36296296  1
  Ti  Ti4067  1  0.76190479  0.52380950  0.36296296  1
  Ti  Ti4068  1  0.76190479  0.59523807  0.36296296  1
  Ti  Ti4069  1  0.76190479  0.66666664  0.36296296  1
  Ti  Ti4070  1  0.76190479  0.73809521  0.36296296  1
  Ti  Ti4071  1  0.76190479  0.80952379  0.36296296  1
  Ti  Ti4072  1  0.76190479  0.88095236  0.36296296  1
  Ti  Ti4073  1  0.76190479  0.95238093  0.36296296  1
  Ti  Ti4074  1  0.83333336  0.02380950  0.36296296  1
  Ti  Ti4075  1  0.83333336  0.09523807  0.36296296  1
  Ti  Ti4076  1  0.83333336  0.16666664  0.36296296  1
  Ti  Ti4077  1  0.83333336  0.23809521  0.36296296  1
  Ti  Ti4078  1  0.83333336  0.30952379  0.36296296  1
  Ti  Ti4079  1  0.83333336  0.38095236  0.36296296  1
  Ti  Ti4080  1  0.83333336  0.45238093  0.36296296  1
  Ti  Ti4081  1  0.83333336  0.52380950  0.36296296  1
  Ti  Ti4082  1  0.83333336  0.59523807  0.36296296  1
  Ti  Ti4083  1  0.83333336  0.66666664  0.36296296  1
  Ti  Ti4084  1  0.83333336  0.73809521  0.36296296  1
  Ti  Ti4085  1  0.83333336  0.80952379  0.36296296  1
  Ti  Ti4086  1  0.83333336  0.88095236  0.36296296  1
  Ti  Ti4087  1  0.83333336  0.95238093  0.36296296  1
  Ti  Ti4088  1  0.90476193  0.02380950  0.36296296  1
  Ti  Ti4089  1  0.90476193  0.09523807  0.36296296  1
  Ti  Ti4090  1  0.90476193  0.16666664  0.36296296  1
  Ti  Ti4091  1  0.90476193  0.23809521  0.36296296  1
  Ti  Ti4092  1  0.90476193  0.30952379  0.36296296  1
  Ti  Ti4093  1  0.90476193  0.38095236  0.36296296  1
  Ti  Ti4094  1  0.90476193  0.45238093  0.36296296  1
  Ti  Ti4095  1  0.90476193  0.52380950  0.36296296  1
  Ti  Ti4096  1  0.90476193  0.59523807  0.36296296  1
  Ti  Ti4097  1  0.90476193  0.66666664  0.36296296  1
  Ti  Ti4098  1  0.90476193  0.73809521  0.36296296  1
  Ti  Ti4099  1  0.90476193  0.80952379  0.36296296  1
  Ti  Ti4100  1  0.90476193  0.88095236  0.36296296  1
  Ti  Ti4101  1  0.90476193  0.95238093  0.36296296  1
  Ti  Ti4102  1  0.97619050  0.02380950  0.36296296  1
  Ti  Ti4103  1  0.97619050  0.09523807  0.36296296  1
  Ti  Ti4104  1  0.97619050  0.16666664  0.36296296  1
  Ti  Ti4105  1  0.97619050  0.23809521  0.36296296  1
  Ti  Ti4106  1  0.97619050  0.30952379  0.36296296  1
  Ti  Ti4107  1  0.97619050  0.38095236  0.36296296  1
  Ti  Ti4108  1  0.97619050  0.45238093  0.36296296  1
  Ti  Ti4109  1  0.97619050  0.52380950  0.36296296  1
  Ti  Ti4110  1  0.97619050  0.59523807  0.36296296  1
  Ti  Ti4111  1  0.97619050  0.66666664  0.36296296  1
  Ti  Ti4112  1  0.97619050  0.73809521  0.36296296  1
  Ti  Ti4113  1  0.97619050  0.80952379  0.36296296  1
  Ti  Ti4114  1  0.97619050  0.88095236  0.36296296  1
  Ti  Ti4115  1  0.97619050  0.95238093  0.36296296  1
  Ti  Ti4116  1  0.00000000  0.00000000  0.39629630  1
  Ti  Ti4117  1  0.00000000  0.07142857  0.39629630  1
  Ti  Ti4118  1  0.00000000  0.14285714  0.39629630  1
  Ti  Ti4119  1  0.00000000  0.21428571  0.39629630  1
  Ti  Ti4120  1  0.00000000  0.28571429  0.39629630  1
  Ti  Ti4121  1  0.00000000  0.35714286  0.39629630  1
  Ti  Ti4122  1  0.00000000  0.42857143  0.39629630  1
  Ti  Ti4123  1  0.00000000  0.50000000  0.39629630  1
  Ti  Ti4124  1  0.00000000  0.57142857  0.39629630  1
  Ti  Ti4125  1  0.00000000  0.64285714  0.39629630  1
  Ti  Ti4126  1  0.00000000  0.71428571  0.39629630  1
  Ti  Ti4127  1  1.00000000  0.78571429  0.39629630  1
  Ti  Ti4128  1  0.00000000  0.85714286  0.39629630  1
  Ti  Ti4129  1  0.00000000  0.92857143  0.39629630  1
  Ti  Ti4130  1  0.07142857  0.00000000  0.39629630  1
  Ti  Ti4131  1  0.07142857  0.07142857  0.39629630  1
  Ti  Ti4132  1  0.07142857  0.14285714  0.39629630  1
  Ti  Ti4133  1  0.07142857  0.21428571  0.39629630  1
  Ti  Ti4134  1  0.07142857  0.28571429  0.39629630  1
  Ti  Ti4135  1  0.07142857  0.35714286  0.39629630  1
  Ti  Ti4136  1  0.07142857  0.42857143  0.39629630  1
  Ti  Ti4137  1  0.07142857  0.50000000  0.39629630  1
  Ti  Ti4138  1  0.07142857  0.57142857  0.39629630  1
  Ti  Ti4139  1  0.07142857  0.64285714  0.39629630  1
  Ti  Ti4140  1  0.07142857  0.71428571  0.39629630  1
  Ti  Ti4141  1  0.07142857  0.78571429  0.39629630  1
  Ti  Ti4142  1  0.07142857  0.85714286  0.39629630  1
  Ti  Ti4143  1  0.07142857  0.92857143  0.39629630  1
  Ti  Ti4144  1  0.14285714  0.00000000  0.39629630  1
  Ti  Ti4145  1  0.14285714  0.07142857  0.39629630  1
  Ti  Ti4146  1  0.14285714  0.14285714  0.39629630  1
  Ti  Ti4147  1  0.14285714  0.21428571  0.39629630  1
  Ti  Ti4148  1  0.14285714  0.28571429  0.39629630  1
  Ti  Ti4149  1  0.14285714  0.35714286  0.39629630  1
  Ti  Ti4150  1  0.14285714  0.42857143  0.39629630  1
  Ti  Ti4151  1  0.14285714  0.50000000  0.39629630  1
  Ti  Ti4152  1  0.14285714  0.57142857  0.39629630  1
  Ti  Ti4153  1  0.14285714  0.64285714  0.39629630  1
  Ti  Ti4154  1  0.14285714  0.71428571  0.39629630  1
  Ti  Ti4155  1  0.14285714  0.78571429  0.39629630  1
  Ti  Ti4156  1  0.14285714  0.85714286  0.39629630  1
  Ti  Ti4157  1  0.14285714  0.92857143  0.39629630  1
  Ti  Ti4158  1  0.21428571  0.00000000  0.39629630  1
  Ti  Ti4159  1  0.21428571  0.07142857  0.39629630  1
  Ti  Ti4160  1  0.21428571  0.14285714  0.39629630  1
  Ti  Ti4161  1  0.21428571  0.21428571  0.39629630  1
  Ti  Ti4162  1  0.21428571  0.28571429  0.39629630  1
  Ti  Ti4163  1  0.21428571  0.35714286  0.39629630  1
  Ti  Ti4164  1  0.21428571  0.42857143  0.39629630  1
  Ti  Ti4165  1  0.21428571  0.50000000  0.39629630  1
  Ti  Ti4166  1  0.21428571  0.57142857  0.39629630  1
  Ti  Ti4167  1  0.21428571  0.64285714  0.39629630  1
  Ti  Ti4168  1  0.21428571  0.71428571  0.39629630  1
  Ti  Ti4169  1  0.21428571  0.78571429  0.39629630  1
  Ti  Ti4170  1  0.21428571  0.85714286  0.39629630  1
  Ti  Ti4171  1  0.21428571  0.92857143  0.39629630  1
  Ti  Ti4172  1  0.28571429  0.00000000  0.39629630  1
  Ti  Ti4173  1  0.28571429  0.07142857  0.39629630  1
  Ti  Ti4174  1  0.28571429  0.14285714  0.39629630  1
  Ti  Ti4175  1  0.28571429  0.21428571  0.39629630  1
  Ti  Ti4176  1  0.28571429  0.28571429  0.39629630  1
  Ti  Ti4177  1  0.28571429  0.35714286  0.39629630  1
  Ti  Ti4178  1  0.28571429  0.42857143  0.39629630  1
  Ti  Ti4179  1  0.28571429  0.50000000  0.39629630  1
  Ti  Ti4180  1  0.28571429  0.57142857  0.39629630  1
  Ti  Ti4181  1  0.28571429  0.64285714  0.39629630  1
  Ti  Ti4182  1  0.28571429  0.71428571  0.39629630  1
  Ti  Ti4183  1  0.28571429  0.78571429  0.39629630  1
  Ti  Ti4184  1  0.28571429  0.85714286  0.39629630  1
  Ti  Ti4185  1  0.28571429  0.92857143  0.39629630  1
  Ti  Ti4186  1  0.35714286  0.00000000  0.39629630  1
  Ti  Ti4187  1  0.35714286  0.07142857  0.39629630  1
  Ti  Ti4188  1  0.35714286  0.14285714  0.39629630  1
  Ti  Ti4189  1  0.35714286  0.21428571  0.39629630  1
  Ti  Ti4190  1  0.35714286  0.28571429  0.39629630  1
  Ti  Ti4191  1  0.35714286  0.35714286  0.39629630  1
  Ti  Ti4192  1  0.35714286  0.42857143  0.39629630  1
  Ti  Ti4193  1  0.35714286  0.50000000  0.39629630  1
  Ti  Ti4194  1  0.35714286  0.57142857  0.39629630  1
  Ti  Ti4195  1  0.35714286  0.64285714  0.39629630  1
  Ti  Ti4196  1  0.35714286  0.71428571  0.39629630  1
  Ti  Ti4197  1  0.35714286  0.78571429  0.39629630  1
  Ti  Ti4198  1  0.35714286  0.85714286  0.39629630  1
  Ti  Ti4199  1  0.35714286  0.92857143  0.39629630  1
  Ti  Ti4200  1  0.42857143  0.00000000  0.39629630  1
  Ti  Ti4201  1  0.42857143  0.07142857  0.39629630  1
  Ti  Ti4202  1  0.42857143  0.14285714  0.39629630  1
  Ti  Ti4203  1  0.42857143  0.21428571  0.39629630  1
  Ti  Ti4204  1  0.42857143  0.28571429  0.39629630  1
  Ti  Ti4205  1  0.42857143  0.35714286  0.39629630  1
  Ti  Ti4206  1  0.42857143  0.42857143  0.39629630  1
  Ti  Ti4207  1  0.42857143  0.50000000  0.39629630  1
  Ti  Ti4208  1  0.42857143  0.57142857  0.39629630  1
  Ti  Ti4209  1  0.42857143  0.64285714  0.39629630  1
  Ti  Ti4210  1  0.42857143  0.71428571  0.39629630  1
  Ti  Ti4211  1  0.42857143  0.78571429  0.39629630  1
  Ti  Ti4212  1  0.42857143  0.85714286  0.39629630  1
  Ti  Ti4213  1  0.42857143  0.92857143  0.39629630  1
  Ti  Ti4214  1  0.50000000  0.00000000  0.39629630  1
  Ti  Ti4215  1  0.50000000  0.07142857  0.39629630  1
  Ti  Ti4216  1  0.50000000  0.14285714  0.39629630  1
  Ti  Ti4217  1  0.50000000  0.21428571  0.39629630  1
  Ti  Ti4218  1  0.50000000  0.28571429  0.39629630  1
  Ti  Ti4219  1  0.50000000  0.35714286  0.39629630  1
  Ti  Ti4220  1  0.50000000  0.42857143  0.39629630  1
  Ti  Ti4221  1  0.50000000  0.50000000  0.39629630  1
  Ti  Ti4222  1  0.50000000  0.57142857  0.39629630  1
  Ti  Ti4223  1  0.50000000  0.64285714  0.39629630  1
  Ti  Ti4224  1  0.50000000  0.71428571  0.39629630  1
  Ti  Ti4225  1  0.50000000  0.78571429  0.39629630  1
  Ti  Ti4226  1  0.50000000  0.85714286  0.39629630  1
  Ti  Ti4227  1  0.50000000  0.92857143  0.39629630  1
  Ti  Ti4228  1  0.57142857  0.00000000  0.39629630  1
  Ti  Ti4229  1  0.57142857  0.07142857  0.39629630  1
  Ti  Ti4230  1  0.57142857  0.14285714  0.39629630  1
  Ti  Ti4231  1  0.57142857  0.21428571  0.39629630  1
  Ti  Ti4232  1  0.57142857  0.28571429  0.39629630  1
  Ti  Ti4233  1  0.57142857  0.35714286  0.39629630  1
  Ti  Ti4234  1  0.57142857  0.42857143  0.39629630  1
  Ti  Ti4235  1  0.57142857  0.50000000  0.39629630  1
  Ti  Ti4236  1  0.57142857  0.57142857  0.39629630  1
  Ti  Ti4237  1  0.57142857  0.64285714  0.39629630  1
  Ti  Ti4238  1  0.57142857  0.71428571  0.39629630  1
  Ti  Ti4239  1  0.57142857  0.78571429  0.39629630  1
  Ti  Ti4240  1  0.57142857  0.85714286  0.39629630  1
  Ti  Ti4241  1  0.57142857  0.92857143  0.39629630  1
  Ti  Ti4242  1  0.64285714  0.00000000  0.39629630  1
  Ti  Ti4243  1  0.64285714  0.07142857  0.39629630  1
  Ti  Ti4244  1  0.64285714  0.14285714  0.39629630  1
  Ti  Ti4245  1  0.64285714  0.21428571  0.39629630  1
  Ti  Ti4246  1  0.64285714  0.28571429  0.39629630  1
  Ti  Ti4247  1  0.64285714  0.35714286  0.39629630  1
  Ti  Ti4248  1  0.64285714  0.42857143  0.39629630  1
  Ti  Ti4249  1  0.64285714  0.50000000  0.39629630  1
  Ti  Ti4250  1  0.64285714  0.57142857  0.39629630  1
  Ti  Ti4251  1  0.64285714  0.64285714  0.39629630  1
  Ti  Ti4252  1  0.64285714  0.71428571  0.39629630  1
  Ti  Ti4253  1  0.64285714  0.78571429  0.39629630  1
  Ti  Ti4254  1  0.64285714  0.85714286  0.39629630  1
  Ti  Ti4255  1  0.64285714  0.92857143  0.39629630  1
  Ti  Ti4256  1  0.71428571  0.00000000  0.39629630  1
  Ti  Ti4257  1  0.71428571  0.07142857  0.39629630  1
  Ti  Ti4258  1  0.71428571  0.14285714  0.39629630  1
  Ti  Ti4259  1  0.71428571  0.21428571  0.39629630  1
  Ti  Ti4260  1  0.71428571  0.28571429  0.39629630  1
  Ti  Ti4261  1  0.71428571  0.35714286  0.39629630  1
  Ti  Ti4262  1  0.71428571  0.42857143  0.39629630  1
  Ti  Ti4263  1  0.71428571  0.50000000  0.39629630  1
  Ti  Ti4264  1  0.71428571  0.57142857  0.39629630  1
  Ti  Ti4265  1  0.71428571  0.64285714  0.39629630  1
  Ti  Ti4266  1  0.71428571  0.71428571  0.39629630  1
  Ti  Ti4267  1  0.71428571  0.78571429  0.39629630  1
  Ti  Ti4268  1  0.71428571  0.85714286  0.39629630  1
  Ti  Ti4269  1  0.71428571  0.92857143  0.39629630  1
  Ti  Ti4270  1  0.78571429  0.00000000  0.39629630  1
  Ti  Ti4271  1  0.78571429  0.07142857  0.39629630  1
  Ti  Ti4272  1  0.78571429  0.14285714  0.39629630  1
  Ti  Ti4273  1  0.78571429  0.21428571  0.39629630  1
  Ti  Ti4274  1  0.78571429  0.28571429  0.39629630  1
  Ti  Ti4275  1  0.78571429  0.35714286  0.39629630  1
  Ti  Ti4276  1  0.78571429  0.42857143  0.39629630  1
  Ti  Ti4277  1  0.78571429  0.50000000  0.39629630  1
  Ti  Ti4278  1  0.78571429  0.57142857  0.39629630  1
  Ti  Ti4279  1  0.78571429  0.64285714  0.39629630  1
  Ti  Ti4280  1  0.78571429  0.71428571  0.39629630  1
  Ti  Ti4281  1  0.78571429  0.78571429  0.39629630  1
  Ti  Ti4282  1  0.78571429  0.85714286  0.39629630  1
  Ti  Ti4283  1  0.78571429  0.92857143  0.39629630  1
  Ti  Ti4284  1  0.85714286  0.00000000  0.39629630  1
  Ti  Ti4285  1  0.85714286  0.07142857  0.39629630  1
  Ti  Ti4286  1  0.85714286  0.14285714  0.39629630  1
  Ti  Ti4287  1  0.85714286  0.21428571  0.39629630  1
  Ti  Ti4288  1  0.85714286  0.28571429  0.39629630  1
  Ti  Ti4289  1  0.85714286  0.35714286  0.39629630  1
  Ti  Ti4290  1  0.85714286  0.42857143  0.39629630  1
  Ti  Ti4291  1  0.85714286  0.50000000  0.39629630  1
  Ti  Ti4292  1  0.85714286  0.57142857  0.39629630  1
  Ti  Ti4293  1  0.85714286  0.64285714  0.39629630  1
  Ti  Ti4294  1  0.85714286  0.71428571  0.39629630  1
  Ti  Ti4295  1  0.85714286  0.78571429  0.39629630  1
  Ti  Ti4296  1  0.85714286  0.85714286  0.39629630  1
  Ti  Ti4297  1  0.85714286  0.92857143  0.39629630  1
  Ti  Ti4298  1  0.92857143  0.00000000  0.39629630  1
  Ti  Ti4299  1  0.92857143  0.07142857  0.39629630  1
  Ti  Ti4300  1  0.92857143  0.14285714  0.39629630  1
  Ti  Ti4301  1  0.92857143  0.21428571  0.39629630  1
  Ti  Ti4302  1  0.92857143  0.28571429  0.39629630  1
  Ti  Ti4303  1  0.92857143  0.35714286  0.39629630  1
  Ti  Ti4304  1  0.92857143  0.42857143  0.39629630  1
  Ti  Ti4305  1  0.92857143  0.50000000  0.39629630  1
  Ti  Ti4306  1  0.92857143  0.57142857  0.39629630  1
  Ti  Ti4307  1  0.92857143  0.64285714  0.39629630  1
  Ti  Ti4308  1  0.92857143  0.71428571  0.39629630  1
  Ti  Ti4309  1  0.92857143  0.78571429  0.39629630  1
  Ti  Ti4310  1  0.92857143  0.85714286  0.39629630  1
  Ti  Ti4311  1  0.92857143  0.92857143  0.39629630  1
  Ti  Ti4312  1  0.02380950  0.04761907  0.38518519  1
  Ti  Ti4313  1  0.02380950  0.11904764  0.38518519  1
  Ti  Ti4314  1  0.02380950  0.19047621  0.38518519  1
  Ti  Ti4315  1  0.02380950  0.26190479  0.38518519  1
  Ti  Ti4316  1  0.02380950  0.33333336  0.38518519  1
  Ti  Ti4317  1  0.02380950  0.40476193  0.38518519  1
  Ti  Ti4318  1  0.02380950  0.47619050  0.38518519  1
  Ti  Ti4319  1  0.02380950  0.54761907  0.38518519  1
  Ti  Ti4320  1  0.02380950  0.61904764  0.38518519  1
  Ti  Ti4321  1  0.02380950  0.69047621  0.38518519  1
  Ti  Ti4322  1  0.02380950  0.76190479  0.38518519  1
  Ti  Ti4323  1  0.02380950  0.83333336  0.38518519  1
  Ti  Ti4324  1  0.02380950  0.90476193  0.38518519  1
  Ti  Ti4325  1  0.02380950  0.97619050  0.38518519  1
  Ti  Ti4326  1  0.09523807  0.04761907  0.38518519  1
  Ti  Ti4327  1  0.09523807  0.11904764  0.38518519  1
  Ti  Ti4328  1  0.09523807  0.19047621  0.38518519  1
  Ti  Ti4329  1  0.09523807  0.26190479  0.38518519  1
  Ti  Ti4330  1  0.09523807  0.33333336  0.38518519  1
  Ti  Ti4331  1  0.09523807  0.40476193  0.38518519  1
  Ti  Ti4332  1  0.09523807  0.47619050  0.38518519  1
  Ti  Ti4333  1  0.09523807  0.54761907  0.38518519  1
  Ti  Ti4334  1  0.09523807  0.61904764  0.38518519  1
  Ti  Ti4335  1  0.09523807  0.69047621  0.38518519  1
  Ti  Ti4336  1  0.09523807  0.76190479  0.38518519  1
  Ti  Ti4337  1  0.09523807  0.83333336  0.38518519  1
  Ti  Ti4338  1  0.09523807  0.90476193  0.38518519  1
  Ti  Ti4339  1  0.09523807  0.97619050  0.38518519  1
  Ti  Ti4340  1  0.16666664  0.04761907  0.38518519  1
  Ti  Ti4341  1  0.16666664  0.11904764  0.38518519  1
  Ti  Ti4342  1  0.16666664  0.19047621  0.38518519  1
  Ti  Ti4343  1  0.16666664  0.26190479  0.38518519  1
  Ti  Ti4344  1  0.16666664  0.33333336  0.38518519  1
  Ti  Ti4345  1  0.16666664  0.40476193  0.38518519  1
  Ti  Ti4346  1  0.16666664  0.47619050  0.38518519  1
  Ti  Ti4347  1  0.16666664  0.54761907  0.38518519  1
  Ti  Ti4348  1  0.16666664  0.61904764  0.38518519  1
  Ti  Ti4349  1  0.16666664  0.69047621  0.38518519  1
  Ti  Ti4350  1  0.16666664  0.76190479  0.38518519  1
  Ti  Ti4351  1  0.16666664  0.83333336  0.38518519  1
  Ti  Ti4352  1  0.16666664  0.90476193  0.38518519  1
  Ti  Ti4353  1  0.16666664  0.97619050  0.38518519  1
  Ti  Ti4354  1  0.23809521  0.04761907  0.38518519  1
  Ti  Ti4355  1  0.23809521  0.11904764  0.38518519  1
  Ti  Ti4356  1  0.23809521  0.19047621  0.38518519  1
  Ti  Ti4357  1  0.23809521  0.26190479  0.38518519  1
  Ti  Ti4358  1  0.23809521  0.33333336  0.38518519  1
  Ti  Ti4359  1  0.23809521  0.40476193  0.38518519  1
  Ti  Ti4360  1  0.23809521  0.47619050  0.38518519  1
  Ti  Ti4361  1  0.23809521  0.54761907  0.38518519  1
  Ti  Ti4362  1  0.23809521  0.61904764  0.38518519  1
  Ti  Ti4363  1  0.23809521  0.69047621  0.38518519  1
  Ti  Ti4364  1  0.23809521  0.76190479  0.38518519  1
  Ti  Ti4365  1  0.23809521  0.83333336  0.38518519  1
  Ti  Ti4366  1  0.23809521  0.90476193  0.38518519  1
  Ti  Ti4367  1  0.23809521  0.97619050  0.38518519  1
  Ti  Ti4368  1  0.30952379  0.04761907  0.38518519  1
  Ti  Ti4369  1  0.30952379  0.11904764  0.38518519  1
  Ti  Ti4370  1  0.30952379  0.19047621  0.38518519  1
  Ti  Ti4371  1  0.30952379  0.26190479  0.38518519  1
  Ti  Ti4372  1  0.30952379  0.33333336  0.38518519  1
  Ti  Ti4373  1  0.30952379  0.40476193  0.38518519  1
  Ti  Ti4374  1  0.30952379  0.47619050  0.38518519  1
  Ti  Ti4375  1  0.30952379  0.54761907  0.38518519  1
  Ti  Ti4376  1  0.30952379  0.61904764  0.38518519  1
  Ti  Ti4377  1  0.30952379  0.69047621  0.38518519  1
  Ti  Ti4378  1  0.30952379  0.76190479  0.38518519  1
  Ti  Ti4379  1  0.30952379  0.83333336  0.38518519  1
  Ti  Ti4380  1  0.30952379  0.90476193  0.38518519  1
  Ti  Ti4381  1  0.30952379  0.97619050  0.38518519  1
  Ti  Ti4382  1  0.38095236  0.04761907  0.38518519  1
  Ti  Ti4383  1  0.38095236  0.11904764  0.38518519  1
  Ti  Ti4384  1  0.38095236  0.19047621  0.38518519  1
  Ti  Ti4385  1  0.38095236  0.26190479  0.38518519  1
  Ti  Ti4386  1  0.38095236  0.33333336  0.38518519  1
  Ti  Ti4387  1  0.38095236  0.40476193  0.38518519  1
  Ti  Ti4388  1  0.38095236  0.47619050  0.38518519  1
  Ti  Ti4389  1  0.38095236  0.54761907  0.38518519  1
  Ti  Ti4390  1  0.38095236  0.61904764  0.38518519  1
  Ti  Ti4391  1  0.38095236  0.69047621  0.38518519  1
  Ti  Ti4392  1  0.38095236  0.76190479  0.38518519  1
  Ti  Ti4393  1  0.38095236  0.83333336  0.38518519  1
  Ti  Ti4394  1  0.38095236  0.90476193  0.38518519  1
  Ti  Ti4395  1  0.38095236  0.97619050  0.38518519  1
  Ti  Ti4396  1  0.45238093  0.04761907  0.38518519  1
  Ti  Ti4397  1  0.45238093  0.11904764  0.38518519  1
  Ti  Ti4398  1  0.45238093  0.19047621  0.38518519  1
  Ti  Ti4399  1  0.45238093  0.26190479  0.38518519  1
  Ti  Ti4400  1  0.45238093  0.33333336  0.38518519  1
  Ti  Ti4401  1  0.45238093  0.40476193  0.38518519  1
  Ti  Ti4402  1  0.45238093  0.47619050  0.38518519  1
  Ti  Ti4403  1  0.45238093  0.54761907  0.38518519  1
  Ti  Ti4404  1  0.45238093  0.61904764  0.38518519  1
  Ti  Ti4405  1  0.45238093  0.69047621  0.38518519  1
  Ti  Ti4406  1  0.45238093  0.76190479  0.38518519  1
  Ti  Ti4407  1  0.45238093  0.83333336  0.38518519  1
  Ti  Ti4408  1  0.45238093  0.90476193  0.38518519  1
  Ti  Ti4409  1  0.45238093  0.97619050  0.38518519  1
  Ti  Ti4410  1  0.52380950  0.04761907  0.38518519  1
  Ti  Ti4411  1  0.52380950  0.11904764  0.38518519  1
  Ti  Ti4412  1  0.52380950  0.19047621  0.38518519  1
  Ti  Ti4413  1  0.52380950  0.26190479  0.38518519  1
  Ti  Ti4414  1  0.52380950  0.33333336  0.38518519  1
  Ti  Ti4415  1  0.52380950  0.40476193  0.38518519  1
  Ti  Ti4416  1  0.52380950  0.47619050  0.38518519  1
  Ti  Ti4417  1  0.52380950  0.54761907  0.38518519  1
  Ti  Ti4418  1  0.52380950  0.61904764  0.38518519  1
  Ti  Ti4419  1  0.52380950  0.69047621  0.38518519  1
  Ti  Ti4420  1  0.52380950  0.76190479  0.38518519  1
  Ti  Ti4421  1  0.52380950  0.83333336  0.38518519  1
  Ti  Ti4422  1  0.52380950  0.90476193  0.38518519  1
  Ti  Ti4423  1  0.52380950  0.97619050  0.38518519  1
  Ti  Ti4424  1  0.59523807  0.04761907  0.38518519  1
  Ti  Ti4425  1  0.59523807  0.11904764  0.38518519  1
  Ti  Ti4426  1  0.59523807  0.19047621  0.38518519  1
  Ti  Ti4427  1  0.59523807  0.26190479  0.38518519  1
  Ti  Ti4428  1  0.59523807  0.33333336  0.38518519  1
  Ti  Ti4429  1  0.59523807  0.40476193  0.38518519  1
  Ti  Ti4430  1  0.59523807  0.47619050  0.38518519  1
  Ti  Ti4431  1  0.59523807  0.54761907  0.38518519  1
  Ti  Ti4432  1  0.59523807  0.61904764  0.38518519  1
  Ti  Ti4433  1  0.59523807  0.69047621  0.38518519  1
  Ti  Ti4434  1  0.59523807  0.76190479  0.38518519  1
  Ti  Ti4435  1  0.59523807  0.83333336  0.38518519  1
  Ti  Ti4436  1  0.59523807  0.90476193  0.38518519  1
  Ti  Ti4437  1  0.59523807  0.97619050  0.38518519  1
  Ti  Ti4438  1  0.66666664  0.04761907  0.38518519  1
  Ti  Ti4439  1  0.66666664  0.11904764  0.38518519  1
  Ti  Ti4440  1  0.66666664  0.19047621  0.38518519  1
  Ti  Ti4441  1  0.66666664  0.26190479  0.38518519  1
  Ti  Ti4442  1  0.66666664  0.33333336  0.38518519  1
  Ti  Ti4443  1  0.66666664  0.40476193  0.38518519  1
  Ti  Ti4444  1  0.66666664  0.47619050  0.38518519  1
  Ti  Ti4445  1  0.66666664  0.54761907  0.38518519  1
  Ti  Ti4446  1  0.66666664  0.61904764  0.38518519  1
  Ti  Ti4447  1  0.66666664  0.69047621  0.38518519  1
  Ti  Ti4448  1  0.66666664  0.76190479  0.38518519  1
  Ti  Ti4449  1  0.66666664  0.83333336  0.38518519  1
  Ti  Ti4450  1  0.66666664  0.90476193  0.38518519  1
  Ti  Ti4451  1  0.66666664  0.97619050  0.38518519  1
  Ti  Ti4452  1  0.73809521  0.04761907  0.38518519  1
  Ti  Ti4453  1  0.73809521  0.11904764  0.38518519  1
  Ti  Ti4454  1  0.73809521  0.19047621  0.38518519  1
  Ti  Ti4455  1  0.73809521  0.26190479  0.38518519  1
  Ti  Ti4456  1  0.73809521  0.33333336  0.38518519  1
  Ti  Ti4457  1  0.73809521  0.40476193  0.38518519  1
  Ti  Ti4458  1  0.73809521  0.47619050  0.38518519  1
  Ti  Ti4459  1  0.73809521  0.54761907  0.38518519  1
  Ti  Ti4460  1  0.73809521  0.61904764  0.38518519  1
  Ti  Ti4461  1  0.73809521  0.69047621  0.38518519  1
  Ti  Ti4462  1  0.73809521  0.76190479  0.38518519  1
  Ti  Ti4463  1  0.73809521  0.83333336  0.38518519  1
  Ti  Ti4464  1  0.73809521  0.90476193  0.38518519  1
  Ti  Ti4465  1  0.73809521  0.97619050  0.38518519  1
  Ti  Ti4466  1  0.80952379  0.04761907  0.38518519  1
  Ti  Ti4467  1  0.80952379  0.11904764  0.38518519  1
  Ti  Ti4468  1  0.80952379  0.19047621  0.38518519  1
  Ti  Ti4469  1  0.80952379  0.26190479  0.38518519  1
  Ti  Ti4470  1  0.80952379  0.33333336  0.38518519  1
  Ti  Ti4471  1  0.80952379  0.40476193  0.38518519  1
  Ti  Ti4472  1  0.80952379  0.47619050  0.38518519  1
  Ti  Ti4473  1  0.80952379  0.54761907  0.38518519  1
  Ti  Ti4474  1  0.80952379  0.61904764  0.38518519  1
  Ti  Ti4475  1  0.80952379  0.69047621  0.38518519  1
  Ti  Ti4476  1  0.80952379  0.76190479  0.38518519  1
  Ti  Ti4477  1  0.80952379  0.83333336  0.38518519  1
  Ti  Ti4478  1  0.80952379  0.90476193  0.38518519  1
  Ti  Ti4479  1  0.80952379  0.97619050  0.38518519  1
  Ti  Ti4480  1  0.88095236  0.04761907  0.38518519  1
  Ti  Ti4481  1  0.88095236  0.11904764  0.38518519  1
  Ti  Ti4482  1  0.88095236  0.19047621  0.38518519  1
  Ti  Ti4483  1  0.88095236  0.26190479  0.38518519  1
  Ti  Ti4484  1  0.88095236  0.33333336  0.38518519  1
  Ti  Ti4485  1  0.88095236  0.40476193  0.38518519  1
  Ti  Ti4486  1  0.88095236  0.47619050  0.38518519  1
  Ti  Ti4487  1  0.88095236  0.54761907  0.38518519  1
  Ti  Ti4488  1  0.88095236  0.61904764  0.38518519  1
  Ti  Ti4489  1  0.88095236  0.69047621  0.38518519  1
  Ti  Ti4490  1  0.88095236  0.76190479  0.38518519  1
  Ti  Ti4491  1  0.88095236  0.83333336  0.38518519  1
  Ti  Ti4492  1  0.88095236  0.90476193  0.38518519  1
  Ti  Ti4493  1  0.88095236  0.97619050  0.38518519  1
  Ti  Ti4494  1  0.95238093  0.04761907  0.38518519  1
  Ti  Ti4495  1  0.95238093  0.11904764  0.38518519  1
  Ti  Ti4496  1  0.95238093  0.19047621  0.38518519  1
  Ti  Ti4497  1  0.95238093  0.26190479  0.38518519  1
  Ti  Ti4498  1  0.95238093  0.33333336  0.38518519  1
  Ti  Ti4499  1  0.95238093  0.40476193  0.38518519  1
  Ti  Ti4500  1  0.95238093  0.47619050  0.38518519  1
  Ti  Ti4501  1  0.95238093  0.54761907  0.38518519  1
  Ti  Ti4502  1  0.95238093  0.61904764  0.38518519  1
  Ti  Ti4503  1  0.95238093  0.69047621  0.38518519  1
  Ti  Ti4504  1  0.95238093  0.76190479  0.38518519  1
  Ti  Ti4505  1  0.95238093  0.83333336  0.38518519  1
  Ti  Ti4506  1  0.95238093  0.90476193  0.38518519  1
  Ti  Ti4507  1  0.95238093  0.97619050  0.38518519  1
  Ti  Ti4508  1  0.04761907  0.02380950  0.38518519  1
  Ti  Ti4509  1  0.04761907  0.09523807  0.38518519  1
  Ti  Ti4510  1  0.04761907  0.16666664  0.38518519  1
  Ti  Ti4511  1  0.04761907  0.23809521  0.38518519  1
  Ti  Ti4512  1  0.04761907  0.30952379  0.38518519  1
  Ti  Ti4513  1  0.04761907  0.38095236  0.38518519  1
  Ti  Ti4514  1  0.04761907  0.45238093  0.38518519  1
  Ti  Ti4515  1  0.04761907  0.52380950  0.38518519  1
  Ti  Ti4516  1  0.04761907  0.59523807  0.38518519  1
  Ti  Ti4517  1  0.04761907  0.66666664  0.38518519  1
  Ti  Ti4518  1  0.04761907  0.73809521  0.38518519  1
  Ti  Ti4519  1  0.04761907  0.80952379  0.38518519  1
  Ti  Ti4520  1  0.04761907  0.88095236  0.38518519  1
  Ti  Ti4521  1  0.04761907  0.95238093  0.38518519  1
  Ti  Ti4522  1  0.11904764  0.02380950  0.38518519  1
  Ti  Ti4523  1  0.11904764  0.09523807  0.38518519  1
  Ti  Ti4524  1  0.11904764  0.16666664  0.38518519  1
  Ti  Ti4525  1  0.11904764  0.23809521  0.38518519  1
  Ti  Ti4526  1  0.11904764  0.30952379  0.38518519  1
  Ti  Ti4527  1  0.11904764  0.38095236  0.38518519  1
  Ti  Ti4528  1  0.11904764  0.45238093  0.38518519  1
  Ti  Ti4529  1  0.11904764  0.52380950  0.38518519  1
  Ti  Ti4530  1  0.11904764  0.59523807  0.38518519  1
  Ti  Ti4531  1  0.11904764  0.66666664  0.38518519  1
  Ti  Ti4532  1  0.11904764  0.73809521  0.38518519  1
  Ti  Ti4533  1  0.11904764  0.80952379  0.38518519  1
  Ti  Ti4534  1  0.11904764  0.88095236  0.38518519  1
  Ti  Ti4535  1  0.11904764  0.95238093  0.38518519  1
  Ti  Ti4536  1  0.19047621  0.02380950  0.38518519  1
  Ti  Ti4537  1  0.19047621  0.09523807  0.38518519  1
  Ti  Ti4538  1  0.19047621  0.16666664  0.38518519  1
  Ti  Ti4539  1  0.19047621  0.23809521  0.38518519  1
  Ti  Ti4540  1  0.19047621  0.30952379  0.38518519  1
  Ti  Ti4541  1  0.19047621  0.38095236  0.38518519  1
  Ti  Ti4542  1  0.19047621  0.45238093  0.38518519  1
  Ti  Ti4543  1  0.19047621  0.52380950  0.38518519  1
  Ti  Ti4544  1  0.19047621  0.59523807  0.38518519  1
  Ti  Ti4545  1  0.19047621  0.66666664  0.38518519  1
  Ti  Ti4546  1  0.19047621  0.73809521  0.38518519  1
  Ti  Ti4547  1  0.19047621  0.80952379  0.38518519  1
  Ti  Ti4548  1  0.19047621  0.88095236  0.38518519  1
  Ti  Ti4549  1  0.19047621  0.95238093  0.38518519  1
  Ti  Ti4550  1  0.26190479  0.02380950  0.38518519  1
  Ti  Ti4551  1  0.26190479  0.09523807  0.38518519  1
  Ti  Ti4552  1  0.26190479  0.16666664  0.38518519  1
  Ti  Ti4553  1  0.26190479  0.23809521  0.38518519  1
  Ti  Ti4554  1  0.26190479  0.30952379  0.38518519  1
  Ti  Ti4555  1  0.26190479  0.38095236  0.38518519  1
  Ti  Ti4556  1  0.26190479  0.45238093  0.38518519  1
  Ti  Ti4557  1  0.26190479  0.52380950  0.38518519  1
  Ti  Ti4558  1  0.26190479  0.59523807  0.38518519  1
  Ti  Ti4559  1  0.26190479  0.66666664  0.38518519  1
  Ti  Ti4560  1  0.26190479  0.73809521  0.38518519  1
  Ti  Ti4561  1  0.26190479  0.80952379  0.38518519  1
  Ti  Ti4562  1  0.26190479  0.88095236  0.38518519  1
  Ti  Ti4563  1  0.26190479  0.95238093  0.38518519  1
  Ti  Ti4564  1  0.33333336  0.02380950  0.38518519  1
  Ti  Ti4565  1  0.33333336  0.09523807  0.38518519  1
  Ti  Ti4566  1  0.33333336  0.16666664  0.38518519  1
  Ti  Ti4567  1  0.33333336  0.23809521  0.38518519  1
  Ti  Ti4568  1  0.33333336  0.30952379  0.38518519  1
  Ti  Ti4569  1  0.33333336  0.38095236  0.38518519  1
  Ti  Ti4570  1  0.33333336  0.45238093  0.38518519  1
  Ti  Ti4571  1  0.33333336  0.52380950  0.38518519  1
  Ti  Ti4572  1  0.33333336  0.59523807  0.38518519  1
  Ti  Ti4573  1  0.33333336  0.66666664  0.38518519  1
  Ti  Ti4574  1  0.33333336  0.73809521  0.38518519  1
  Ti  Ti4575  1  0.33333336  0.80952379  0.38518519  1
  Ti  Ti4576  1  0.33333336  0.88095236  0.38518519  1
  Ti  Ti4577  1  0.33333336  0.95238093  0.38518519  1
  Ti  Ti4578  1  0.40476193  0.02380950  0.38518519  1
  Ti  Ti4579  1  0.40476193  0.09523807  0.38518519  1
  Ti  Ti4580  1  0.40476193  0.16666664  0.38518519  1
  Ti  Ti4581  1  0.40476193  0.23809521  0.38518519  1
  Ti  Ti4582  1  0.40476193  0.30952379  0.38518519  1
  Ti  Ti4583  1  0.40476193  0.38095236  0.38518519  1
  Ti  Ti4584  1  0.40476193  0.45238093  0.38518519  1
  Ti  Ti4585  1  0.40476193  0.52380950  0.38518519  1
  Ti  Ti4586  1  0.40476193  0.59523807  0.38518519  1
  Ti  Ti4587  1  0.40476193  0.66666664  0.38518519  1
  Ti  Ti4588  1  0.40476193  0.73809521  0.38518519  1
  Ti  Ti4589  1  0.40476193  0.80952379  0.38518519  1
  Ti  Ti4590  1  0.40476193  0.88095236  0.38518519  1
  Ti  Ti4591  1  0.40476193  0.95238093  0.38518519  1
  Ti  Ti4592  1  0.47619050  0.02380950  0.38518519  1
  Ti  Ti4593  1  0.47619050  0.09523807  0.38518519  1
  Ti  Ti4594  1  0.47619050  0.16666664  0.38518519  1
  Ti  Ti4595  1  0.47619050  0.23809521  0.38518519  1
  Ti  Ti4596  1  0.47619050  0.30952379  0.38518519  1
  Ti  Ti4597  1  0.47619050  0.38095236  0.38518519  1
  Ti  Ti4598  1  0.47619050  0.45238093  0.38518519  1
  Ti  Ti4599  1  0.47619050  0.52380950  0.38518519  1
  Ti  Ti4600  1  0.47619050  0.59523807  0.38518519  1
  Ti  Ti4601  1  0.47619050  0.66666664  0.38518519  1
  Ti  Ti4602  1  0.47619050  0.73809521  0.38518519  1
  Ti  Ti4603  1  0.47619050  0.80952379  0.38518519  1
  Ti  Ti4604  1  0.47619050  0.88095236  0.38518519  1
  Ti  Ti4605  1  0.47619050  0.95238093  0.38518519  1
  Ti  Ti4606  1  0.54761907  0.02380950  0.38518519  1
  Ti  Ti4607  1  0.54761907  0.09523807  0.38518519  1
  Ti  Ti4608  1  0.54761907  0.16666664  0.38518519  1
  Ti  Ti4609  1  0.54761907  0.23809521  0.38518519  1
  Ti  Ti4610  1  0.54761907  0.30952379  0.38518519  1
  Ti  Ti4611  1  0.54761907  0.38095236  0.38518519  1
  Ti  Ti4612  1  0.54761907  0.45238093  0.38518519  1
  Ti  Ti4613  1  0.54761907  0.52380950  0.38518519  1
  Ti  Ti4614  1  0.54761907  0.59523807  0.38518519  1
  Ti  Ti4615  1  0.54761907  0.66666664  0.38518519  1
  Ti  Ti4616  1  0.54761907  0.73809521  0.38518519  1
  Ti  Ti4617  1  0.54761907  0.80952379  0.38518519  1
  Ti  Ti4618  1  0.54761907  0.88095236  0.38518519  1
  Ti  Ti4619  1  0.54761907  0.95238093  0.38518519  1
  Ti  Ti4620  1  0.61904764  0.02380950  0.38518519  1
  Ti  Ti4621  1  0.61904764  0.09523807  0.38518519  1
  Ti  Ti4622  1  0.61904764  0.16666664  0.38518519  1
  Ti  Ti4623  1  0.61904764  0.23809521  0.38518519  1
  Ti  Ti4624  1  0.61904764  0.30952379  0.38518519  1
  Ti  Ti4625  1  0.61904764  0.38095236  0.38518519  1
  Ti  Ti4626  1  0.61904764  0.45238093  0.38518519  1
  Ti  Ti4627  1  0.61904764  0.52380950  0.38518519  1
  Ti  Ti4628  1  0.61904764  0.59523807  0.38518519  1
  Ti  Ti4629  1  0.61904764  0.66666664  0.38518519  1
  Ti  Ti4630  1  0.61904764  0.73809521  0.38518519  1
  Ti  Ti4631  1  0.61904764  0.80952379  0.38518519  1
  Ti  Ti4632  1  0.61904764  0.88095236  0.38518519  1
  Ti  Ti4633  1  0.61904764  0.95238093  0.38518519  1
  Ti  Ti4634  1  0.69047621  0.02380950  0.38518519  1
  Ti  Ti4635  1  0.69047621  0.09523807  0.38518519  1
  Ti  Ti4636  1  0.69047621  0.16666664  0.38518519  1
  Ti  Ti4637  1  0.69047621  0.23809521  0.38518519  1
  Ti  Ti4638  1  0.69047621  0.30952379  0.38518519  1
  Ti  Ti4639  1  0.69047621  0.38095236  0.38518519  1
  Ti  Ti4640  1  0.69047621  0.45238093  0.38518519  1
  Ti  Ti4641  1  0.69047621  0.52380950  0.38518519  1
  Ti  Ti4642  1  0.69047621  0.59523807  0.38518519  1
  Ti  Ti4643  1  0.69047621  0.66666664  0.38518519  1
  Ti  Ti4644  1  0.69047621  0.73809521  0.38518519  1
  Ti  Ti4645  1  0.69047621  0.80952379  0.38518519  1
  Ti  Ti4646  1  0.69047621  0.88095236  0.38518519  1
  Ti  Ti4647  1  0.69047621  0.95238093  0.38518519  1
  Ti  Ti4648  1  0.76190479  0.02380950  0.38518519  1
  Ti  Ti4649  1  0.76190479  0.09523807  0.38518519  1
  Ti  Ti4650  1  0.76190479  0.16666664  0.38518519  1
  Ti  Ti4651  1  0.76190479  0.23809521  0.38518519  1
  Ti  Ti4652  1  0.76190479  0.30952379  0.38518519  1
  Ti  Ti4653  1  0.76190479  0.38095236  0.38518519  1
  Ti  Ti4654  1  0.76190479  0.45238093  0.38518519  1
  Ti  Ti4655  1  0.76190479  0.52380950  0.38518519  1
  Ti  Ti4656  1  0.76190479  0.59523807  0.38518519  1
  Ti  Ti4657  1  0.76190479  0.66666664  0.38518519  1
  Ti  Ti4658  1  0.76190479  0.73809521  0.38518519  1
  Ti  Ti4659  1  0.76190479  0.80952379  0.38518519  1
  Ti  Ti4660  1  0.76190479  0.88095236  0.38518519  1
  Ti  Ti4661  1  0.76190479  0.95238093  0.38518519  1
  Ti  Ti4662  1  0.83333336  0.02380950  0.38518519  1
  Ti  Ti4663  1  0.83333336  0.09523807  0.38518519  1
  Ti  Ti4664  1  0.83333336  0.16666664  0.38518519  1
  Ti  Ti4665  1  0.83333336  0.23809521  0.38518519  1
  Ti  Ti4666  1  0.83333336  0.30952379  0.38518519  1
  Ti  Ti4667  1  0.83333336  0.38095236  0.38518519  1
  Ti  Ti4668  1  0.83333336  0.45238093  0.38518519  1
  Ti  Ti4669  1  0.83333336  0.52380950  0.38518519  1
  Ti  Ti4670  1  0.83333336  0.59523807  0.38518519  1
  Ti  Ti4671  1  0.83333336  0.66666664  0.38518519  1
  Ti  Ti4672  1  0.83333336  0.73809521  0.38518519  1
  Ti  Ti4673  1  0.83333336  0.80952379  0.38518519  1
  Ti  Ti4674  1  0.83333336  0.88095236  0.38518519  1
  Ti  Ti4675  1  0.83333336  0.95238093  0.38518519  1
  Ti  Ti4676  1  0.90476193  0.02380950  0.38518519  1
  Ti  Ti4677  1  0.90476193  0.09523807  0.38518519  1
  Ti  Ti4678  1  0.90476193  0.16666664  0.38518519  1
  Ti  Ti4679  1  0.90476193  0.23809521  0.38518519  1
  Ti  Ti4680  1  0.90476193  0.30952379  0.38518519  1
  Ti  Ti4681  1  0.90476193  0.38095236  0.38518519  1
  Ti  Ti4682  1  0.90476193  0.45238093  0.38518519  1
  Ti  Ti4683  1  0.90476193  0.52380950  0.38518519  1
  Ti  Ti4684  1  0.90476193  0.59523807  0.38518519  1
  Ti  Ti4685  1  0.90476193  0.66666664  0.38518519  1
  Ti  Ti4686  1  0.90476193  0.73809521  0.38518519  1
  Ti  Ti4687  1  0.90476193  0.80952379  0.38518519  1
  Ti  Ti4688  1  0.90476193  0.88095236  0.38518519  1
  Ti  Ti4689  1  0.90476193  0.95238093  0.38518519  1
  Ti  Ti4690  1  0.97619050  0.02380950  0.38518519  1
  Ti  Ti4691  1  0.97619050  0.09523807  0.38518519  1
  Ti  Ti4692  1  0.97619050  0.16666664  0.38518519  1
  Ti  Ti4693  1  0.97619050  0.23809521  0.38518519  1
  Ti  Ti4694  1  0.97619050  0.30952379  0.38518519  1
  Ti  Ti4695  1  0.97619050  0.38095236  0.38518519  1
  Ti  Ti4696  1  0.97619050  0.45238093  0.38518519  1
  Ti  Ti4697  1  0.97619050  0.52380950  0.38518519  1
  Ti  Ti4698  1  0.97619050  0.59523807  0.38518519  1
  Ti  Ti4699  1  0.97619050  0.66666664  0.38518519  1
  Ti  Ti4700  1  0.97619050  0.73809521  0.38518519  1
  Ti  Ti4701  1  0.97619050  0.80952379  0.38518519  1
  Ti  Ti4702  1  0.97619050  0.88095236  0.38518519  1
  Ti  Ti4703  1  0.97619050  0.95238093  0.38518519  1
  Ti  Ti4704  1  0.00000000  0.00000000  0.41851852  1
  Ti  Ti4705  1  0.00000000  0.07142857  0.41851852  1
  Ti  Ti4706  1  0.00000000  0.14285714  0.41851852  1
  Ti  Ti4707  1  0.00000000  0.21428571  0.41851852  1
  Ti  Ti4708  1  0.00000000  0.28571429  0.41851852  1
  Ti  Ti4709  1  0.00000000  0.35714286  0.41851852  1
  Ti  Ti4710  1  0.00000000  0.42857143  0.41851852  1
  Ti  Ti4711  1  0.00000000  0.50000000  0.41851852  1
  Ti  Ti4712  1  0.00000000  0.57142857  0.41851852  1
  Ti  Ti4713  1  0.00000000  0.64285714  0.41851852  1
  Ti  Ti4714  1  0.00000000  0.71428571  0.41851852  1
  Ti  Ti4715  1  1.00000000  0.78571429  0.41851852  1
  Ti  Ti4716  1  0.00000000  0.85714286  0.41851852  1
  Ti  Ti4717  1  0.00000000  0.92857143  0.41851852  1
  Ti  Ti4718  1  0.07142857  0.00000000  0.41851852  1
  Ti  Ti4719  1  0.07142857  0.07142857  0.41851852  1
  Ti  Ti4720  1  0.07142857  0.14285714  0.41851852  1
  Ti  Ti4721  1  0.07142857  0.21428571  0.41851852  1
  Ti  Ti4722  1  0.07142857  0.28571429  0.41851852  1
  Ti  Ti4723  1  0.07142857  0.35714286  0.41851852  1
  Ti  Ti4724  1  0.07142857  0.42857143  0.41851852  1
  Ti  Ti4725  1  0.07142857  0.50000000  0.41851852  1
  Ti  Ti4726  1  0.07142857  0.57142857  0.41851852  1
  Ti  Ti4727  1  0.07142857  0.64285714  0.41851852  1
  Ti  Ti4728  1  0.07142857  0.71428571  0.41851852  1
  Ti  Ti4729  1  0.07142857  0.78571429  0.41851852  1
  Ti  Ti4730  1  0.07142857  0.85714286  0.41851852  1
  Ti  Ti4731  1  0.07142857  0.92857143  0.41851852  1
  Ti  Ti4732  1  0.14285714  0.00000000  0.41851852  1
  Ti  Ti4733  1  0.14285714  0.07142857  0.41851852  1
  Ti  Ti4734  1  0.14285714  0.14285714  0.41851852  1
  Ti  Ti4735  1  0.14285714  0.21428571  0.41851852  1
  Ti  Ti4736  1  0.14285714  0.28571429  0.41851852  1
  Ti  Ti4737  1  0.14285714  0.35714286  0.41851852  1
  Ti  Ti4738  1  0.14285714  0.42857143  0.41851852  1
  Ti  Ti4739  1  0.14285714  0.50000000  0.41851852  1
  Ti  Ti4740  1  0.14285714  0.57142857  0.41851852  1
  Ti  Ti4741  1  0.14285714  0.64285714  0.41851852  1
  Ti  Ti4742  1  0.14285714  0.71428571  0.41851852  1
  Ti  Ti4743  1  0.14285714  0.78571429  0.41851852  1
  Ti  Ti4744  1  0.14285714  0.85714286  0.41851852  1
  Ti  Ti4745  1  0.14285714  0.92857143  0.41851852  1
  Ti  Ti4746  1  0.21428571  0.00000000  0.41851852  1
  Ti  Ti4747  1  0.21428571  0.07142857  0.41851852  1
  Ti  Ti4748  1  0.21428571  0.14285714  0.41851852  1
  Ti  Ti4749  1  0.21428571  0.21428571  0.41851852  1
  Ti  Ti4750  1  0.21428571  0.28571429  0.41851852  1
  Ti  Ti4751  1  0.21428571  0.35714286  0.41851852  1
  Ti  Ti4752  1  0.21428571  0.42857143  0.41851852  1
  Ti  Ti4753  1  0.21428571  0.50000000  0.41851852  1
  Ti  Ti4754  1  0.21428571  0.57142857  0.41851852  1
  Ti  Ti4755  1  0.21428571  0.64285714  0.41851852  1
  Ti  Ti4756  1  0.21428571  0.71428571  0.41851852  1
  Ti  Ti4757  1  0.21428571  0.78571429  0.41851852  1
  Ti  Ti4758  1  0.21428571  0.85714286  0.41851852  1
  Ti  Ti4759  1  0.21428571  0.92857143  0.41851852  1
  Ti  Ti4760  1  0.28571429  0.00000000  0.41851852  1
  Ti  Ti4761  1  0.28571429  0.07142857  0.41851852  1
  Ti  Ti4762  1  0.28571429  0.14285714  0.41851852  1
  Ti  Ti4763  1  0.28571429  0.21428571  0.41851852  1
  Ti  Ti4764  1  0.28571429  0.28571429  0.41851852  1
  Ti  Ti4765  1  0.28571429  0.35714286  0.41851852  1
  Ti  Ti4766  1  0.28571429  0.42857143  0.41851852  1
  Ti  Ti4767  1  0.28571429  0.50000000  0.41851852  1
  Ti  Ti4768  1  0.28571429  0.57142857  0.41851852  1
  Ti  Ti4769  1  0.28571429  0.64285714  0.41851852  1
  Ti  Ti4770  1  0.28571429  0.71428571  0.41851852  1
  Ti  Ti4771  1  0.28571429  0.78571429  0.41851852  1
  Ti  Ti4772  1  0.28571429  0.85714286  0.41851852  1
  Ti  Ti4773  1  0.28571429  0.92857143  0.41851852  1
  Ti  Ti4774  1  0.35714286  0.00000000  0.41851852  1
  Ti  Ti4775  1  0.35714286  0.07142857  0.41851852  1
  Ti  Ti4776  1  0.35714286  0.14285714  0.41851852  1
  Ti  Ti4777  1  0.35714286  0.21428571  0.41851852  1
  Ti  Ti4778  1  0.35714286  0.28571429  0.41851852  1
  Ti  Ti4779  1  0.35714286  0.35714286  0.41851852  1
  Ti  Ti4780  1  0.35714286  0.42857143  0.41851852  1
  Ti  Ti4781  1  0.35714286  0.50000000  0.41851852  1
  Ti  Ti4782  1  0.35714286  0.57142857  0.41851852  1
  Ti  Ti4783  1  0.35714286  0.64285714  0.41851852  1
  Ti  Ti4784  1  0.35714286  0.71428571  0.41851852  1
  Ti  Ti4785  1  0.35714286  0.78571429  0.41851852  1
  Ti  Ti4786  1  0.35714286  0.85714286  0.41851852  1
  Ti  Ti4787  1  0.35714286  0.92857143  0.41851852  1
  Ti  Ti4788  1  0.42857143  0.00000000  0.41851852  1
  Ti  Ti4789  1  0.42857143  0.07142857  0.41851852  1
  Ti  Ti4790  1  0.42857143  0.14285714  0.41851852  1
  Ti  Ti4791  1  0.42857143  0.21428571  0.41851852  1
  Ti  Ti4792  1  0.42857143  0.28571429  0.41851852  1
  Ti  Ti4793  1  0.42857143  0.35714286  0.41851852  1
  Ti  Ti4794  1  0.42857143  0.42857143  0.41851852  1
  Ti  Ti4795  1  0.42857143  0.50000000  0.41851852  1
  Ti  Ti4796  1  0.42857143  0.57142857  0.41851852  1
  Ti  Ti4797  1  0.42857143  0.64285714  0.41851852  1
  Ti  Ti4798  1  0.42857143  0.71428571  0.41851852  1
  Ti  Ti4799  1  0.42857143  0.78571429  0.41851852  1
  Ti  Ti4800  1  0.42857143  0.85714286  0.41851852  1
  Ti  Ti4801  1  0.42857143  0.92857143  0.41851852  1
  Ti  Ti4802  1  0.50000000  0.00000000  0.41851852  1
  Ti  Ti4803  1  0.50000000  0.07142857  0.41851852  1
  Ti  Ti4804  1  0.50000000  0.14285714  0.41851852  1
  Ti  Ti4805  1  0.50000000  0.21428571  0.41851852  1
  Ti  Ti4806  1  0.50000000  0.28571429  0.41851852  1
  Ti  Ti4807  1  0.50000000  0.35714286  0.41851852  1
  Ti  Ti4808  1  0.50000000  0.42857143  0.41851852  1
  Ti  Ti4809  1  0.50000000  0.50000000  0.41851852  1
  Ti  Ti4810  1  0.50000000  0.57142857  0.41851852  1
  Ti  Ti4811  1  0.50000000  0.64285714  0.41851852  1
  Ti  Ti4812  1  0.50000000  0.71428571  0.41851852  1
  Ti  Ti4813  1  0.50000000  0.78571429  0.41851852  1
  Ti  Ti4814  1  0.50000000  0.85714286  0.41851852  1
  Ti  Ti4815  1  0.50000000  0.92857143  0.41851852  1
  Ti  Ti4816  1  0.57142857  0.00000000  0.41851852  1
  Ti  Ti4817  1  0.57142857  0.07142857  0.41851852  1
  Ti  Ti4818  1  0.57142857  0.14285714  0.41851852  1
  Ti  Ti4819  1  0.57142857  0.21428571  0.41851852  1
  Ti  Ti4820  1  0.57142857  0.28571429  0.41851852  1
  Ti  Ti4821  1  0.57142857  0.35714286  0.41851852  1
  Ti  Ti4822  1  0.57142857  0.42857143  0.41851852  1
  Ti  Ti4823  1  0.57142857  0.50000000  0.41851852  1
  Ti  Ti4824  1  0.57142857  0.57142857  0.41851852  1
  Ti  Ti4825  1  0.57142857  0.64285714  0.41851852  1
  Ti  Ti4826  1  0.57142857  0.71428571  0.41851852  1
  Ti  Ti4827  1  0.57142857  0.78571429  0.41851852  1
  Ti  Ti4828  1  0.57142857  0.85714286  0.41851852  1
  Ti  Ti4829  1  0.57142857  0.92857143  0.41851852  1
  Ti  Ti4830  1  0.64285714  0.00000000  0.41851852  1
  Ti  Ti4831  1  0.64285714  0.07142857  0.41851852  1
  Ti  Ti4832  1  0.64285714  0.14285714  0.41851852  1
  Ti  Ti4833  1  0.64285714  0.21428571  0.41851852  1
  Ti  Ti4834  1  0.64285714  0.28571429  0.41851852  1
  Ti  Ti4835  1  0.64285714  0.35714286  0.41851852  1
  Ti  Ti4836  1  0.64285714  0.42857143  0.41851852  1
  Ti  Ti4837  1  0.64285714  0.50000000  0.41851852  1
  Ti  Ti4838  1  0.64285714  0.57142857  0.41851852  1
  Ti  Ti4839  1  0.64285714  0.64285714  0.41851852  1
  Ti  Ti4840  1  0.64285714  0.71428571  0.41851852  1
  Ti  Ti4841  1  0.64285714  0.78571429  0.41851852  1
  Ti  Ti4842  1  0.64285714  0.85714286  0.41851852  1
  Ti  Ti4843  1  0.64285714  0.92857143  0.41851852  1
  Ti  Ti4844  1  0.71428571  0.00000000  0.41851852  1
  Ti  Ti4845  1  0.71428571  0.07142857  0.41851852  1
  Ti  Ti4846  1  0.71428571  0.14285714  0.41851852  1
  Ti  Ti4847  1  0.71428571  0.21428571  0.41851852  1
  Ti  Ti4848  1  0.71428571  0.28571429  0.41851852  1
  Ti  Ti4849  1  0.71428571  0.35714286  0.41851852  1
  Ti  Ti4850  1  0.71428571  0.42857143  0.41851852  1
  Ti  Ti4851  1  0.71428571  0.50000000  0.41851852  1
  Ti  Ti4852  1  0.71428571  0.57142857  0.41851852  1
  Ti  Ti4853  1  0.71428571  0.64285714  0.41851852  1
  Ti  Ti4854  1  0.71428571  0.71428571  0.41851852  1
  Ti  Ti4855  1  0.71428571  0.78571429  0.41851852  1
  Ti  Ti4856  1  0.71428571  0.85714286  0.41851852  1
  Ti  Ti4857  1  0.71428571  0.92857143  0.41851852  1
  Ti  Ti4858  1  0.78571429  0.00000000  0.41851852  1
  Ti  Ti4859  1  0.78571429  0.07142857  0.41851852  1
  Ti  Ti4860  1  0.78571429  0.14285714  0.41851852  1
  Ti  Ti4861  1  0.78571429  0.21428571  0.41851852  1
  Ti  Ti4862  1  0.78571429  0.28571429  0.41851852  1
  Ti  Ti4863  1  0.78571429  0.35714286  0.41851852  1
  Ti  Ti4864  1  0.78571429  0.42857143  0.41851852  1
  Ti  Ti4865  1  0.78571429  0.50000000  0.41851852  1
  Ti  Ti4866  1  0.78571429  0.57142857  0.41851852  1
  Ti  Ti4867  1  0.78571429  0.64285714  0.41851852  1
  Ti  Ti4868  1  0.78571429  0.71428571  0.41851852  1
  Ti  Ti4869  1  0.78571429  0.78571429  0.41851852  1
  Ti  Ti4870  1  0.78571429  0.85714286  0.41851852  1
  Ti  Ti4871  1  0.78571429  0.92857143  0.41851852  1
  Ti  Ti4872  1  0.85714286  0.00000000  0.41851852  1
  Ti  Ti4873  1  0.85714286  0.07142857  0.41851852  1
  Ti  Ti4874  1  0.85714286  0.14285714  0.41851852  1
  Ti  Ti4875  1  0.85714286  0.21428571  0.41851852  1
  Ti  Ti4876  1  0.85714286  0.28571429  0.41851852  1
  Ti  Ti4877  1  0.85714286  0.35714286  0.41851852  1
  Ti  Ti4878  1  0.85714286  0.42857143  0.41851852  1
  Ti  Ti4879  1  0.85714286  0.50000000  0.41851852  1
  Ti  Ti4880  1  0.85714286  0.57142857  0.41851852  1
  Ti  Ti4881  1  0.85714286  0.64285714  0.41851852  1
  Ti  Ti4882  1  0.85714286  0.71428571  0.41851852  1
  Ti  Ti4883  1  0.85714286  0.78571429  0.41851852  1
  Ti  Ti4884  1  0.85714286  0.85714286  0.41851852  1
  Ti  Ti4885  1  0.85714286  0.92857143  0.41851852  1
  Ti  Ti4886  1  0.92857143  0.00000000  0.41851852  1
  Ti  Ti4887  1  0.92857143  0.07142857  0.41851852  1
  Ti  Ti4888  1  0.92857143  0.14285714  0.41851852  1
  Ti  Ti4889  1  0.92857143  0.21428571  0.41851852  1
  Ti  Ti4890  1  0.92857143  0.28571429  0.41851852  1
  Ti  Ti4891  1  0.92857143  0.35714286  0.41851852  1
  Ti  Ti4892  1  0.92857143  0.42857143  0.41851852  1
  Ti  Ti4893  1  0.92857143  0.50000000  0.41851852  1
  Ti  Ti4894  1  0.92857143  0.57142857  0.41851852  1
  Ti  Ti4895  1  0.92857143  0.64285714  0.41851852  1
  Ti  Ti4896  1  0.92857143  0.71428571  0.41851852  1
  Ti  Ti4897  1  0.92857143  0.78571429  0.41851852  1
  Ti  Ti4898  1  0.92857143  0.85714286  0.41851852  1
  Ti  Ti4899  1  0.92857143  0.92857143  0.41851852  1
  Ti  Ti4900  1  0.02380950  0.04761907  0.40740741  1
  Ti  Ti4901  1  0.02380950  0.11904764  0.40740741  1
  Ti  Ti4902  1  0.02380950  0.19047621  0.40740741  1
  Ti  Ti4903  1  0.02380950  0.26190479  0.40740741  1
  Ti  Ti4904  1  0.02380950  0.33333336  0.40740741  1
  Ti  Ti4905  1  0.02380950  0.40476193  0.40740741  1
  Ti  Ti4906  1  0.02380950  0.47619050  0.40740741  1
  Ti  Ti4907  1  0.02380950  0.54761907  0.40740741  1
  Ti  Ti4908  1  0.02380950  0.61904764  0.40740741  1
  Ti  Ti4909  1  0.02380950  0.69047621  0.40740741  1
  Ti  Ti4910  1  0.02380950  0.76190479  0.40740741  1
  Ti  Ti4911  1  0.02380950  0.83333336  0.40740741  1
  Ti  Ti4912  1  0.02380950  0.90476193  0.40740741  1
  Ti  Ti4913  1  0.02380950  0.97619050  0.40740741  1
  Ti  Ti4914  1  0.09523807  0.04761907  0.40740741  1
  Ti  Ti4915  1  0.09523807  0.11904764  0.40740741  1
  Ti  Ti4916  1  0.09523807  0.19047621  0.40740741  1
  Ti  Ti4917  1  0.09523807  0.26190479  0.40740741  1
  Ti  Ti4918  1  0.09523807  0.33333336  0.40740741  1
  Ti  Ti4919  1  0.09523807  0.40476193  0.40740741  1
  Ti  Ti4920  1  0.09523807  0.47619050  0.40740741  1
  Ti  Ti4921  1  0.09523807  0.54761907  0.40740741  1
  Ti  Ti4922  1  0.09523807  0.61904764  0.40740741  1
  Ti  Ti4923  1  0.09523807  0.69047621  0.40740741  1
  Ti  Ti4924  1  0.09523807  0.76190479  0.40740741  1
  Ti  Ti4925  1  0.09523807  0.83333336  0.40740741  1
  Ti  Ti4926  1  0.09523807  0.90476193  0.40740741  1
  Ti  Ti4927  1  0.09523807  0.97619050  0.40740741  1
  Ti  Ti4928  1  0.16666664  0.04761907  0.40740741  1
  Ti  Ti4929  1  0.16666664  0.11904764  0.40740741  1
  Ti  Ti4930  1  0.16666664  0.19047621  0.40740741  1
  Ti  Ti4931  1  0.16666664  0.26190479  0.40740741  1
  Ti  Ti4932  1  0.16666664  0.33333336  0.40740741  1
  Ti  Ti4933  1  0.16666664  0.40476193  0.40740741  1
  Ti  Ti4934  1  0.16666664  0.47619050  0.40740741  1
  Ti  Ti4935  1  0.16666664  0.54761907  0.40740741  1
  Ti  Ti4936  1  0.16666664  0.61904764  0.40740741  1
  Ti  Ti4937  1  0.16666664  0.69047621  0.40740741  1
  Ti  Ti4938  1  0.16666664  0.76190479  0.40740741  1
  Ti  Ti4939  1  0.16666664  0.83333336  0.40740741  1
  Ti  Ti4940  1  0.16666664  0.90476193  0.40740741  1
  Ti  Ti4941  1  0.16666664  0.97619050  0.40740741  1
  Ti  Ti4942  1  0.23809521  0.04761907  0.40740741  1
  Ti  Ti4943  1  0.23809521  0.11904764  0.40740741  1
  Ti  Ti4944  1  0.23809521  0.19047621  0.40740741  1
  Ti  Ti4945  1  0.23809521  0.26190479  0.40740741  1
  Ti  Ti4946  1  0.23809521  0.33333336  0.40740741  1
  Ti  Ti4947  1  0.23809521  0.40476193  0.40740741  1
  Ti  Ti4948  1  0.23809521  0.47619050  0.40740741  1
  Ti  Ti4949  1  0.23809521  0.54761907  0.40740741  1
  Ti  Ti4950  1  0.23809521  0.61904764  0.40740741  1
  Ti  Ti4951  1  0.23809521  0.69047621  0.40740741  1
  Ti  Ti4952  1  0.23809521  0.76190479  0.40740741  1
  Ti  Ti4953  1  0.23809521  0.83333336  0.40740741  1
  Ti  Ti4954  1  0.23809521  0.90476193  0.40740741  1
  Ti  Ti4955  1  0.23809521  0.97619050  0.40740741  1
  Ti  Ti4956  1  0.30952379  0.04761907  0.40740741  1
  Ti  Ti4957  1  0.30952379  0.11904764  0.40740741  1
  Ti  Ti4958  1  0.30952379  0.19047621  0.40740741  1
  Ti  Ti4959  1  0.30952379  0.26190479  0.40740741  1
  Ti  Ti4960  1  0.30952379  0.33333336  0.40740741  1
  Ti  Ti4961  1  0.30952379  0.40476193  0.40740741  1
  Ti  Ti4962  1  0.30952379  0.47619050  0.40740741  1
  Ti  Ti4963  1  0.30952379  0.54761907  0.40740741  1
  Ti  Ti4964  1  0.30952379  0.61904764  0.40740741  1
  Ti  Ti4965  1  0.30952379  0.69047621  0.40740741  1
  Ti  Ti4966  1  0.30952379  0.76190479  0.40740741  1
  Ti  Ti4967  1  0.30952379  0.83333336  0.40740741  1
  Ti  Ti4968  1  0.30952379  0.90476193  0.40740741  1
  Ti  Ti4969  1  0.30952379  0.97619050  0.40740741  1
  Ti  Ti4970  1  0.38095236  0.04761907  0.40740741  1
  Ti  Ti4971  1  0.38095236  0.11904764  0.40740741  1
  Ti  Ti4972  1  0.38095236  0.19047621  0.40740741  1
  Ti  Ti4973  1  0.38095236  0.26190479  0.40740741  1
  Ti  Ti4974  1  0.38095236  0.33333336  0.40740741  1
  Ti  Ti4975  1  0.38095236  0.40476193  0.40740741  1
  Ti  Ti4976  1  0.38095236  0.47619050  0.40740741  1
  Ti  Ti4977  1  0.38095236  0.54761907  0.40740741  1
  Ti  Ti4978  1  0.38095236  0.61904764  0.40740741  1
  Ti  Ti4979  1  0.38095236  0.69047621  0.40740741  1
  Ti  Ti4980  1  0.38095236  0.76190479  0.40740741  1
  Ti  Ti4981  1  0.38095236  0.83333336  0.40740741  1
  Ti  Ti4982  1  0.38095236  0.90476193  0.40740741  1
  Ti  Ti4983  1  0.38095236  0.97619050  0.40740741  1
  Ti  Ti4984  1  0.45238093  0.04761907  0.40740741  1
  Ti  Ti4985  1  0.45238093  0.11904764  0.40740741  1
  Ti  Ti4986  1  0.45238093  0.19047621  0.40740741  1
  Ti  Ti4987  1  0.45238093  0.26190479  0.40740741  1
  Ti  Ti4988  1  0.45238093  0.33333336  0.40740741  1
  Ti  Ti4989  1  0.45238093  0.40476193  0.40740741  1
  Ti  Ti4990  1  0.45238093  0.47619050  0.40740741  1
  Ti  Ti4991  1  0.45238093  0.54761907  0.40740741  1
  Ti  Ti4992  1  0.45238093  0.61904764  0.40740741  1
  Ti  Ti4993  1  0.45238093  0.69047621  0.40740741  1
  Ti  Ti4994  1  0.45238093  0.76190479  0.40740741  1
  Ti  Ti4995  1  0.45238093  0.83333336  0.40740741  1
  Ti  Ti4996  1  0.45238093  0.90476193  0.40740741  1
  Ti  Ti4997  1  0.45238093  0.97619050  0.40740741  1
  Ti  Ti4998  1  0.52380950  0.04761907  0.40740741  1
  Ti  Ti4999  1  0.52380950  0.11904764  0.40740741  1
  Ti  Ti5000  1  0.52380950  0.19047621  0.40740741  1
  Ti  Ti5001  1  0.52380950  0.26190479  0.40740741  1
  Ti  Ti5002  1  0.52380950  0.33333336  0.40740741  1
  Ti  Ti5003  1  0.52380950  0.40476193  0.40740741  1
  Ti  Ti5004  1  0.52380950  0.47619050  0.40740741  1
  Ti  Ti5005  1  0.52380950  0.54761907  0.40740741  1
  Ti  Ti5006  1  0.52380950  0.61904764  0.40740741  1
  Ti  Ti5007  1  0.52380950  0.69047621  0.40740741  1
  Ti  Ti5008  1  0.52380950  0.76190479  0.40740741  1
  Ti  Ti5009  1  0.52380950  0.83333336  0.40740741  1
  Ti  Ti5010  1  0.52380950  0.90476193  0.40740741  1
  Ti  Ti5011  1  0.52380950  0.97619050  0.40740741  1
  Ti  Ti5012  1  0.59523807  0.04761907  0.40740741  1
  Ti  Ti5013  1  0.59523807  0.11904764  0.40740741  1
  Ti  Ti5014  1  0.59523807  0.19047621  0.40740741  1
  Ti  Ti5015  1  0.59523807  0.26190479  0.40740741  1
  Ti  Ti5016  1  0.59523807  0.33333336  0.40740741  1
  Ti  Ti5017  1  0.59523807  0.40476193  0.40740741  1
  Ti  Ti5018  1  0.59523807  0.47619050  0.40740741  1
  Ti  Ti5019  1  0.59523807  0.54761907  0.40740741  1
  Ti  Ti5020  1  0.59523807  0.61904764  0.40740741  1
  Ti  Ti5021  1  0.59523807  0.69047621  0.40740741  1
  Ti  Ti5022  1  0.59523807  0.76190479  0.40740741  1
  Ti  Ti5023  1  0.59523807  0.83333336  0.40740741  1
  Ti  Ti5024  1  0.59523807  0.90476193  0.40740741  1
  Ti  Ti5025  1  0.59523807  0.97619050  0.40740741  1
  Ti  Ti5026  1  0.66666664  0.04761907  0.40740741  1
  Ti  Ti5027  1  0.66666664  0.11904764  0.40740741  1
  Ti  Ti5028  1  0.66666664  0.19047621  0.40740741  1
  Ti  Ti5029  1  0.66666664  0.26190479  0.40740741  1
  Ti  Ti5030  1  0.66666664  0.33333336  0.40740741  1
  Ti  Ti5031  1  0.66666664  0.40476193  0.40740741  1
  Ti  Ti5032  1  0.66666664  0.47619050  0.40740741  1
  Ti  Ti5033  1  0.66666664  0.54761907  0.40740741  1
  Ti  Ti5034  1  0.66666664  0.61904764  0.40740741  1
  Ti  Ti5035  1  0.66666664  0.69047621  0.40740741  1
  Ti  Ti5036  1  0.66666664  0.76190479  0.40740741  1
  Ti  Ti5037  1  0.66666664  0.83333336  0.40740741  1
  Ti  Ti5038  1  0.66666664  0.90476193  0.40740741  1
  Ti  Ti5039  1  0.66666664  0.97619050  0.40740741  1
  Ti  Ti5040  1  0.73809521  0.04761907  0.40740741  1
  Ti  Ti5041  1  0.73809521  0.11904764  0.40740741  1
  Ti  Ti5042  1  0.73809521  0.19047621  0.40740741  1
  Ti  Ti5043  1  0.73809521  0.26190479  0.40740741  1
  Ti  Ti5044  1  0.73809521  0.33333336  0.40740741  1
  Ti  Ti5045  1  0.73809521  0.40476193  0.40740741  1
  Ti  Ti5046  1  0.73809521  0.47619050  0.40740741  1
  Ti  Ti5047  1  0.73809521  0.54761907  0.40740741  1
  Ti  Ti5048  1  0.73809521  0.61904764  0.40740741  1
  Ti  Ti5049  1  0.73809521  0.69047621  0.40740741  1
  Ti  Ti5050  1  0.73809521  0.76190479  0.40740741  1
  Ti  Ti5051  1  0.73809521  0.83333336  0.40740741  1
  Ti  Ti5052  1  0.73809521  0.90476193  0.40740741  1
  Ti  Ti5053  1  0.73809521  0.97619050  0.40740741  1
  Ti  Ti5054  1  0.80952379  0.04761907  0.40740741  1
  Ti  Ti5055  1  0.80952379  0.11904764  0.40740741  1
  Ti  Ti5056  1  0.80952379  0.19047621  0.40740741  1
  Ti  Ti5057  1  0.80952379  0.26190479  0.40740741  1
  Ti  Ti5058  1  0.80952379  0.33333336  0.40740741  1
  Ti  Ti5059  1  0.80952379  0.40476193  0.40740741  1
  Ti  Ti5060  1  0.80952379  0.47619050  0.40740741  1
  Ti  Ti5061  1  0.80952379  0.54761907  0.40740741  1
  Ti  Ti5062  1  0.80952379  0.61904764  0.40740741  1
  Ti  Ti5063  1  0.80952379  0.69047621  0.40740741  1
  Ti  Ti5064  1  0.80952379  0.76190479  0.40740741  1
  Ti  Ti5065  1  0.80952379  0.83333336  0.40740741  1
  Ti  Ti5066  1  0.80952379  0.90476193  0.40740741  1
  Ti  Ti5067  1  0.80952379  0.97619050  0.40740741  1
  Ti  Ti5068  1  0.88095236  0.04761907  0.40740741  1
  Ti  Ti5069  1  0.88095236  0.11904764  0.40740741  1
  Ti  Ti5070  1  0.88095236  0.19047621  0.40740741  1
  Ti  Ti5071  1  0.88095236  0.26190479  0.40740741  1
  Ti  Ti5072  1  0.88095236  0.33333336  0.40740741  1
  Ti  Ti5073  1  0.88095236  0.40476193  0.40740741  1
  Ti  Ti5074  1  0.88095236  0.47619050  0.40740741  1
  Ti  Ti5075  1  0.88095236  0.54761907  0.40740741  1
  Ti  Ti5076  1  0.88095236  0.61904764  0.40740741  1
  Ti  Ti5077  1  0.88095236  0.69047621  0.40740741  1
  Ti  Ti5078  1  0.88095236  0.76190479  0.40740741  1
  Ti  Ti5079  1  0.88095236  0.83333336  0.40740741  1
  Ti  Ti5080  1  0.88095236  0.90476193  0.40740741  1
  Ti  Ti5081  1  0.88095236  0.97619050  0.40740741  1
  Ti  Ti5082  1  0.95238093  0.04761907  0.40740741  1
  Ti  Ti5083  1  0.95238093  0.11904764  0.40740741  1
  Ti  Ti5084  1  0.95238093  0.19047621  0.40740741  1
  Ti  Ti5085  1  0.95238093  0.26190479  0.40740741  1
  Ti  Ti5086  1  0.95238093  0.33333336  0.40740741  1
  Ti  Ti5087  1  0.95238093  0.40476193  0.40740741  1
  Ti  Ti5088  1  0.95238093  0.47619050  0.40740741  1
  Ti  Ti5089  1  0.95238093  0.54761907  0.40740741  1
  Ti  Ti5090  1  0.95238093  0.61904764  0.40740741  1
  Ti  Ti5091  1  0.95238093  0.69047621  0.40740741  1
  Ti  Ti5092  1  0.95238093  0.76190479  0.40740741  1
  Ti  Ti5093  1  0.95238093  0.83333336  0.40740741  1
  Ti  Ti5094  1  0.95238093  0.90476193  0.40740741  1
  Ti  Ti5095  1  0.95238093  0.97619050  0.40740741  1
  Ti  Ti5096  1  0.04761907  0.02380950  0.40740741  1
  Ti  Ti5097  1  0.04761907  0.09523807  0.40740741  1
  Ti  Ti5098  1  0.04761907  0.16666664  0.40740741  1
  Ti  Ti5099  1  0.04761907  0.23809521  0.40740741  1
  Ti  Ti5100  1  0.04761907  0.30952379  0.40740741  1
  Ti  Ti5101  1  0.04761907  0.38095236  0.40740741  1
  Ti  Ti5102  1  0.04761907  0.45238093  0.40740741  1
  Ti  Ti5103  1  0.04761907  0.52380950  0.40740741  1
  Ti  Ti5104  1  0.04761907  0.59523807  0.40740741  1
  Ti  Ti5105  1  0.04761907  0.66666664  0.40740741  1
  Ti  Ti5106  1  0.04761907  0.73809521  0.40740741  1
  Ti  Ti5107  1  0.04761907  0.80952379  0.40740741  1
  Ti  Ti5108  1  0.04761907  0.88095236  0.40740741  1
  Ti  Ti5109  1  0.04761907  0.95238093  0.40740741  1
  Ti  Ti5110  1  0.11904764  0.02380950  0.40740741  1
  Ti  Ti5111  1  0.11904764  0.09523807  0.40740741  1
  Ti  Ti5112  1  0.11904764  0.16666664  0.40740741  1
  Ti  Ti5113  1  0.11904764  0.23809521  0.40740741  1
  Ti  Ti5114  1  0.11904764  0.30952379  0.40740741  1
  Ti  Ti5115  1  0.11904764  0.38095236  0.40740741  1
  Ti  Ti5116  1  0.11904764  0.45238093  0.40740741  1
  Ti  Ti5117  1  0.11904764  0.52380950  0.40740741  1
  Ti  Ti5118  1  0.11904764  0.59523807  0.40740741  1
  Ti  Ti5119  1  0.11904764  0.66666664  0.40740741  1
  Ti  Ti5120  1  0.11904764  0.73809521  0.40740741  1
  Ti  Ti5121  1  0.11904764  0.80952379  0.40740741  1
  Ti  Ti5122  1  0.11904764  0.88095236  0.40740741  1
  Ti  Ti5123  1  0.11904764  0.95238093  0.40740741  1
  Ti  Ti5124  1  0.19047621  0.02380950  0.40740741  1
  Ti  Ti5125  1  0.19047621  0.09523807  0.40740741  1
  Ti  Ti5126  1  0.19047621  0.16666664  0.40740741  1
  Ti  Ti5127  1  0.19047621  0.23809521  0.40740741  1
  Ti  Ti5128  1  0.19047621  0.30952379  0.40740741  1
  Ti  Ti5129  1  0.19047621  0.38095236  0.40740741  1
  Ti  Ti5130  1  0.19047621  0.45238093  0.40740741  1
  Ti  Ti5131  1  0.19047621  0.52380950  0.40740741  1
  Ti  Ti5132  1  0.19047621  0.59523807  0.40740741  1
  Ti  Ti5133  1  0.19047621  0.66666664  0.40740741  1
  Ti  Ti5134  1  0.19047621  0.73809521  0.40740741  1
  Ti  Ti5135  1  0.19047621  0.80952379  0.40740741  1
  Ti  Ti5136  1  0.19047621  0.88095236  0.40740741  1
  Ti  Ti5137  1  0.19047621  0.95238093  0.40740741  1
  Ti  Ti5138  1  0.26190479  0.02380950  0.40740741  1
  Ti  Ti5139  1  0.26190479  0.09523807  0.40740741  1
  Ti  Ti5140  1  0.26190479  0.16666664  0.40740741  1
  Ti  Ti5141  1  0.26190479  0.23809521  0.40740741  1
  Ti  Ti5142  1  0.26190479  0.30952379  0.40740741  1
  Ti  Ti5143  1  0.26190479  0.38095236  0.40740741  1
  Ti  Ti5144  1  0.26190479  0.45238093  0.40740741  1
  Ti  Ti5145  1  0.26190479  0.52380950  0.40740741  1
  Ti  Ti5146  1  0.26190479  0.59523807  0.40740741  1
  Ti  Ti5147  1  0.26190479  0.66666664  0.40740741  1
  Ti  Ti5148  1  0.26190479  0.73809521  0.40740741  1
  Ti  Ti5149  1  0.26190479  0.80952379  0.40740741  1
  Ti  Ti5150  1  0.26190479  0.88095236  0.40740741  1
  Ti  Ti5151  1  0.26190479  0.95238093  0.40740741  1
  Ti  Ti5152  1  0.33333336  0.02380950  0.40740741  1
  Ti  Ti5153  1  0.33333336  0.09523807  0.40740741  1
  Ti  Ti5154  1  0.33333336  0.16666664  0.40740741  1
  Ti  Ti5155  1  0.33333336  0.23809521  0.40740741  1
  Ti  Ti5156  1  0.33333336  0.30952379  0.40740741  1
  Ti  Ti5157  1  0.33333336  0.38095236  0.40740741  1
  Ti  Ti5158  1  0.33333336  0.45238093  0.40740741  1
  Ti  Ti5159  1  0.33333336  0.52380950  0.40740741  1
  Ti  Ti5160  1  0.33333336  0.59523807  0.40740741  1
  Ti  Ti5161  1  0.33333336  0.66666664  0.40740741  1
  Ti  Ti5162  1  0.33333336  0.73809521  0.40740741  1
  Ti  Ti5163  1  0.33333336  0.80952379  0.40740741  1
  Ti  Ti5164  1  0.33333336  0.88095236  0.40740741  1
  Ti  Ti5165  1  0.33333336  0.95238093  0.40740741  1
  Ti  Ti5166  1  0.40476193  0.02380950  0.40740741  1
  Ti  Ti5167  1  0.40476193  0.09523807  0.40740741  1
  Ti  Ti5168  1  0.40476193  0.16666664  0.40740741  1
  Ti  Ti5169  1  0.40476193  0.23809521  0.40740741  1
  Ti  Ti5170  1  0.40476193  0.30952379  0.40740741  1
  Ti  Ti5171  1  0.40476193  0.38095236  0.40740741  1
  Ti  Ti5172  1  0.40476193  0.45238093  0.40740741  1
  Ti  Ti5173  1  0.40476193  0.52380950  0.40740741  1
  Ti  Ti5174  1  0.40476193  0.59523807  0.40740741  1
  Ti  Ti5175  1  0.40476193  0.66666664  0.40740741  1
  Ti  Ti5176  1  0.40476193  0.73809521  0.40740741  1
  Ti  Ti5177  1  0.40476193  0.80952379  0.40740741  1
  Ti  Ti5178  1  0.40476193  0.88095236  0.40740741  1
  Ti  Ti5179  1  0.40476193  0.95238093  0.40740741  1
  Ti  Ti5180  1  0.47619050  0.02380950  0.40740741  1
  Ti  Ti5181  1  0.47619050  0.09523807  0.40740741  1
  Ti  Ti5182  1  0.47619050  0.16666664  0.40740741  1
  Ti  Ti5183  1  0.47619050  0.23809521  0.40740741  1
  Ti  Ti5184  1  0.47619050  0.30952379  0.40740741  1
  Ti  Ti5185  1  0.47619050  0.38095236  0.40740741  1
  Ti  Ti5186  1  0.47619050  0.45238093  0.40740741  1
  Ti  Ti5187  1  0.47619050  0.52380950  0.40740741  1
  Ti  Ti5188  1  0.47619050  0.59523807  0.40740741  1
  Ti  Ti5189  1  0.47619050  0.66666664  0.40740741  1
  Ti  Ti5190  1  0.47619050  0.73809521  0.40740741  1
  Ti  Ti5191  1  0.47619050  0.80952379  0.40740741  1
  Ti  Ti5192  1  0.47619050  0.88095236  0.40740741  1
  Ti  Ti5193  1  0.47619050  0.95238093  0.40740741  1
  Ti  Ti5194  1  0.54761907  0.02380950  0.40740741  1
  Ti  Ti5195  1  0.54761907  0.09523807  0.40740741  1
  Ti  Ti5196  1  0.54761907  0.16666664  0.40740741  1
  Ti  Ti5197  1  0.54761907  0.23809521  0.40740741  1
  Ti  Ti5198  1  0.54761907  0.30952379  0.40740741  1
  Ti  Ti5199  1  0.54761907  0.38095236  0.40740741  1
  Ti  Ti5200  1  0.54761907  0.45238093  0.40740741  1
  Ti  Ti5201  1  0.54761907  0.52380950  0.40740741  1
  Ti  Ti5202  1  0.54761907  0.59523807  0.40740741  1
  Ti  Ti5203  1  0.54761907  0.66666664  0.40740741  1
  Ti  Ti5204  1  0.54761907  0.73809521  0.40740741  1
  Ti  Ti5205  1  0.54761907  0.80952379  0.40740741  1
  Ti  Ti5206  1  0.54761907  0.88095236  0.40740741  1
  Ti  Ti5207  1  0.54761907  0.95238093  0.40740741  1
  Ti  Ti5208  1  0.61904764  0.02380950  0.40740741  1
  Ti  Ti5209  1  0.61904764  0.09523807  0.40740741  1
  Ti  Ti5210  1  0.61904764  0.16666664  0.40740741  1
  Ti  Ti5211  1  0.61904764  0.23809521  0.40740741  1
  Ti  Ti5212  1  0.61904764  0.30952379  0.40740741  1
  Ti  Ti5213  1  0.61904764  0.38095236  0.40740741  1
  Ti  Ti5214  1  0.61904764  0.45238093  0.40740741  1
  Ti  Ti5215  1  0.61904764  0.52380950  0.40740741  1
  Ti  Ti5216  1  0.61904764  0.59523807  0.40740741  1
  Ti  Ti5217  1  0.61904764  0.66666664  0.40740741  1
  Ti  Ti5218  1  0.61904764  0.73809521  0.40740741  1
  Ti  Ti5219  1  0.61904764  0.80952379  0.40740741  1
  Ti  Ti5220  1  0.61904764  0.88095236  0.40740741  1
  Ti  Ti5221  1  0.61904764  0.95238093  0.40740741  1
  Ti  Ti5222  1  0.69047621  0.02380950  0.40740741  1
  Ti  Ti5223  1  0.69047621  0.09523807  0.40740741  1
  Ti  Ti5224  1  0.69047621  0.16666664  0.40740741  1
  Ti  Ti5225  1  0.69047621  0.23809521  0.40740741  1
  Ti  Ti5226  1  0.69047621  0.30952379  0.40740741  1
  Ti  Ti5227  1  0.69047621  0.38095236  0.40740741  1
  Ti  Ti5228  1  0.69047621  0.45238093  0.40740741  1
  Ti  Ti5229  1  0.69047621  0.52380950  0.40740741  1
  Ti  Ti5230  1  0.69047621  0.59523807  0.40740741  1
  Ti  Ti5231  1  0.69047621  0.66666664  0.40740741  1
  Ti  Ti5232  1  0.69047621  0.73809521  0.40740741  1
  Ti  Ti5233  1  0.69047621  0.80952379  0.40740741  1
  Ti  Ti5234  1  0.69047621  0.88095236  0.40740741  1
  Ti  Ti5235  1  0.69047621  0.95238093  0.40740741  1
  Ti  Ti5236  1  0.76190479  0.02380950  0.40740741  1
  Ti  Ti5237  1  0.76190479  0.09523807  0.40740741  1
  Ti  Ti5238  1  0.76190479  0.16666664  0.40740741  1
  Ti  Ti5239  1  0.76190479  0.23809521  0.40740741  1
  Ti  Ti5240  1  0.76190479  0.30952379  0.40740741  1
  Ti  Ti5241  1  0.76190479  0.38095236  0.40740741  1
  Ti  Ti5242  1  0.76190479  0.45238093  0.40740741  1
  Ti  Ti5243  1  0.76190479  0.52380950  0.40740741  1
  Ti  Ti5244  1  0.76190479  0.59523807  0.40740741  1
  Ti  Ti5245  1  0.76190479  0.66666664  0.40740741  1
  Ti  Ti5246  1  0.76190479  0.73809521  0.40740741  1
  Ti  Ti5247  1  0.76190479  0.80952379  0.40740741  1
  Ti  Ti5248  1  0.76190479  0.88095236  0.40740741  1
  Ti  Ti5249  1  0.76190479  0.95238093  0.40740741  1
  Ti  Ti5250  1  0.83333336  0.02380950  0.40740741  1
  Ti  Ti5251  1  0.83333336  0.09523807  0.40740741  1
  Ti  Ti5252  1  0.83333336  0.16666664  0.40740741  1
  Ti  Ti5253  1  0.83333336  0.23809521  0.40740741  1
  Ti  Ti5254  1  0.83333336  0.30952379  0.40740741  1
  Ti  Ti5255  1  0.83333336  0.38095236  0.40740741  1
  Ti  Ti5256  1  0.83333336  0.45238093  0.40740741  1
  Ti  Ti5257  1  0.83333336  0.52380950  0.40740741  1
  Ti  Ti5258  1  0.83333336  0.59523807  0.40740741  1
  Ti  Ti5259  1  0.83333336  0.66666664  0.40740741  1
  Ti  Ti5260  1  0.83333336  0.73809521  0.40740741  1
  Ti  Ti5261  1  0.83333336  0.80952379  0.40740741  1
  Ti  Ti5262  1  0.83333336  0.88095236  0.40740741  1
  Ti  Ti5263  1  0.83333336  0.95238093  0.40740741  1
  Ti  Ti5264  1  0.90476193  0.02380950  0.40740741  1
  Ti  Ti5265  1  0.90476193  0.09523807  0.40740741  1
  Ti  Ti5266  1  0.90476193  0.16666664  0.40740741  1
  Ti  Ti5267  1  0.90476193  0.23809521  0.40740741  1
  Ti  Ti5268  1  0.90476193  0.30952379  0.40740741  1
  Ti  Ti5269  1  0.90476193  0.38095236  0.40740741  1
  Ti  Ti5270  1  0.90476193  0.45238093  0.40740741  1
  Ti  Ti5271  1  0.90476193  0.52380950  0.40740741  1
  Ti  Ti5272  1  0.90476193  0.59523807  0.40740741  1
  Ti  Ti5273  1  0.90476193  0.66666664  0.40740741  1
  Ti  Ti5274  1  0.90476193  0.73809521  0.40740741  1
  Ti  Ti5275  1  0.90476193  0.80952379  0.40740741  1
  Ti  Ti5276  1  0.90476193  0.88095236  0.40740741  1
  Ti  Ti5277  1  0.90476193  0.95238093  0.40740741  1
  Ti  Ti5278  1  0.97619050  0.02380950  0.40740741  1
  Ti  Ti5279  1  0.97619050  0.09523807  0.40740741  1
  Ti  Ti5280  1  0.97619050  0.16666664  0.40740741  1
  Ti  Ti5281  1  0.97619050  0.23809521  0.40740741  1
  Ti  Ti5282  1  0.97619050  0.30952379  0.40740741  1
  Ti  Ti5283  1  0.97619050  0.38095236  0.40740741  1
  Ti  Ti5284  1  0.97619050  0.45238093  0.40740741  1
  Ti  Ti5285  1  0.97619050  0.52380950  0.40740741  1
  Ti  Ti5286  1  0.97619050  0.59523807  0.40740741  1
  Ti  Ti5287  1  0.97619050  0.66666664  0.40740741  1
  Ti  Ti5288  1  0.97619050  0.73809521  0.40740741  1
  Ti  Ti5289  1  0.97619050  0.80952379  0.40740741  1
  Ti  Ti5290  1  0.97619050  0.88095236  0.40740741  1
  Ti  Ti5291  1  0.97619050  0.95238093  0.40740741  1
  Ti  Ti5292  1  0.00000000  0.00000000  0.44074074  1
  Ti  Ti5293  1  0.00000000  0.07142857  0.44074074  1
  Ti  Ti5294  1  0.00000000  0.14285714  0.44074074  1
  Ti  Ti5295  1  0.00000000  0.21428571  0.44074074  1
  Ti  Ti5296  1  0.00000000  0.28571429  0.44074074  1
  Ti  Ti5297  1  0.00000000  0.35714286  0.44074074  1
  Ti  Ti5298  1  0.00000000  0.42857143  0.44074074  1
  Ti  Ti5299  1  0.00000000  0.50000000  0.44074074  1
  Ti  Ti5300  1  0.00000000  0.57142857  0.44074074  1
  Ti  Ti5301  1  0.00000000  0.64285714  0.44074074  1
  Ti  Ti5302  1  0.00000000  0.71428571  0.44074074  1
  Ti  Ti5303  1  1.00000000  0.78571429  0.44074074  1
  Ti  Ti5304  1  0.00000000  0.85714286  0.44074074  1
  Ti  Ti5305  1  0.00000000  0.92857143  0.44074074  1
  Ti  Ti5306  1  0.07142857  0.00000000  0.44074074  1
  Ti  Ti5307  1  0.07142857  0.07142857  0.44074074  1
  Ti  Ti5308  1  0.07142857  0.14285714  0.44074074  1
  Ti  Ti5309  1  0.07142857  0.21428571  0.44074074  1
  Ti  Ti5310  1  0.07142857  0.28571429  0.44074074  1
  Ti  Ti5311  1  0.07142857  0.35714286  0.44074074  1
  Ti  Ti5312  1  0.07142857  0.42857143  0.44074074  1
  Ti  Ti5313  1  0.07142857  0.50000000  0.44074074  1
  Ti  Ti5314  1  0.07142857  0.57142857  0.44074074  1
  Ti  Ti5315  1  0.07142857  0.64285714  0.44074074  1
  Ti  Ti5316  1  0.07142857  0.71428571  0.44074074  1
  Ti  Ti5317  1  0.07142857  0.78571429  0.44074074  1
  Ti  Ti5318  1  0.07142857  0.85714286  0.44074074  1
  Ti  Ti5319  1  0.07142857  0.92857143  0.44074074  1
  Ti  Ti5320  1  0.14285714  0.00000000  0.44074074  1
  Ti  Ti5321  1  0.14285714  0.07142857  0.44074074  1
  Ti  Ti5322  1  0.14285714  0.14285714  0.44074074  1
  Ti  Ti5323  1  0.14285714  0.21428571  0.44074074  1
  Ti  Ti5324  1  0.14285714  0.28571429  0.44074074  1
  Ti  Ti5325  1  0.14285714  0.35714286  0.44074074  1
  Ti  Ti5326  1  0.14285714  0.42857143  0.44074074  1
  Ti  Ti5327  1  0.14285714  0.50000000  0.44074074  1
  Ti  Ti5328  1  0.14285714  0.57142857  0.44074074  1
  Ti  Ti5329  1  0.14285714  0.64285714  0.44074074  1
  Ti  Ti5330  1  0.14285714  0.71428571  0.44074074  1
  Ti  Ti5331  1  0.14285714  0.78571429  0.44074074  1
  Ti  Ti5332  1  0.14285714  0.85714286  0.44074074  1
  Ti  Ti5333  1  0.14285714  0.92857143  0.44074074  1
  Ti  Ti5334  1  0.21428571  0.00000000  0.44074074  1
  Ti  Ti5335  1  0.21428571  0.07142857  0.44074074  1
  Ti  Ti5336  1  0.21428571  0.14285714  0.44074074  1
  Ti  Ti5337  1  0.21428571  0.21428571  0.44074074  1
  Ti  Ti5338  1  0.21428571  0.28571429  0.44074074  1
  Ti  Ti5339  1  0.21428571  0.35714286  0.44074074  1
  Ti  Ti5340  1  0.21428571  0.42857143  0.44074074  1
  Ti  Ti5341  1  0.21428571  0.50000000  0.44074074  1
  Ti  Ti5342  1  0.21428571  0.57142857  0.44074074  1
  Ti  Ti5343  1  0.21428571  0.64285714  0.44074074  1
  Ti  Ti5344  1  0.21428571  0.71428571  0.44074074  1
  Ti  Ti5345  1  0.21428571  0.78571429  0.44074074  1
  Ti  Ti5346  1  0.21428571  0.85714286  0.44074074  1
  Ti  Ti5347  1  0.21428571  0.92857143  0.44074074  1
  Ti  Ti5348  1  0.28571429  0.00000000  0.44074074  1
  Ti  Ti5349  1  0.28571429  0.07142857  0.44074074  1
  Ti  Ti5350  1  0.28571429  0.14285714  0.44074074  1
  Ti  Ti5351  1  0.28571429  0.21428571  0.44074074  1
  Ti  Ti5352  1  0.28571429  0.28571429  0.44074074  1
  Ti  Ti5353  1  0.28571429  0.35714286  0.44074074  1
  Ti  Ti5354  1  0.28571429  0.42857143  0.44074074  1
  Ti  Ti5355  1  0.28571429  0.50000000  0.44074074  1
  Ti  Ti5356  1  0.28571429  0.57142857  0.44074074  1
  Ti  Ti5357  1  0.28571429  0.64285714  0.44074074  1
  Ti  Ti5358  1  0.28571429  0.71428571  0.44074074  1
  Ti  Ti5359  1  0.28571429  0.78571429  0.44074074  1
  Ti  Ti5360  1  0.28571429  0.85714286  0.44074074  1
  Ti  Ti5361  1  0.28571429  0.92857143  0.44074074  1
  Ti  Ti5362  1  0.35714286  0.00000000  0.44074074  1
  Ti  Ti5363  1  0.35714286  0.07142857  0.44074074  1
  Ti  Ti5364  1  0.35714286  0.14285714  0.44074074  1
  Ti  Ti5365  1  0.35714286  0.21428571  0.44074074  1
  Ti  Ti5366  1  0.35714286  0.28571429  0.44074074  1
  Ti  Ti5367  1  0.35714286  0.35714286  0.44074074  1
  Ti  Ti5368  1  0.35714286  0.42857143  0.44074074  1
  Ti  Ti5369  1  0.35714286  0.50000000  0.44074074  1
  Ti  Ti5370  1  0.35714286  0.57142857  0.44074074  1
  Ti  Ti5371  1  0.35714286  0.64285714  0.44074074  1
  Ti  Ti5372  1  0.35714286  0.71428571  0.44074074  1
  Ti  Ti5373  1  0.35714286  0.78571429  0.44074074  1
  Ti  Ti5374  1  0.35714286  0.85714286  0.44074074  1
  Ti  Ti5375  1  0.35714286  0.92857143  0.44074074  1
  Ti  Ti5376  1  0.42857143  0.00000000  0.44074074  1
  Ti  Ti5377  1  0.42857143  0.07142857  0.44074074  1
  Ti  Ti5378  1  0.42857143  0.14285714  0.44074074  1
  Ti  Ti5379  1  0.42857143  0.21428571  0.44074074  1
  Ti  Ti5380  1  0.42857143  0.28571429  0.44074074  1
  Ti  Ti5381  1  0.42857143  0.35714286  0.44074074  1
  Ti  Ti5382  1  0.42857143  0.42857143  0.44074074  1
  Ti  Ti5383  1  0.42857143  0.50000000  0.44074074  1
  Ti  Ti5384  1  0.42857143  0.57142857  0.44074074  1
  Ti  Ti5385  1  0.42857143  0.64285714  0.44074074  1
  Ti  Ti5386  1  0.42857143  0.71428571  0.44074074  1
  Ti  Ti5387  1  0.42857143  0.78571429  0.44074074  1
  Ti  Ti5388  1  0.42857143  0.85714286  0.44074074  1
  Ti  Ti5389  1  0.42857143  0.92857143  0.44074074  1
  Ti  Ti5390  1  0.50000000  0.00000000  0.44074074  1
  Ti  Ti5391  1  0.50000000  0.07142857  0.44074074  1
  Ti  Ti5392  1  0.50000000  0.14285714  0.44074074  1
  Ti  Ti5393  1  0.50000000  0.21428571  0.44074074  1
  Ti  Ti5394  1  0.50000000  0.28571429  0.44074074  1
  Ti  Ti5395  1  0.50000000  0.35714286  0.44074074  1
  Ti  Ti5396  1  0.50000000  0.42857143  0.44074074  1
  Ti  Ti5397  1  0.50000000  0.50000000  0.44074074  1
  Ti  Ti5398  1  0.50000000  0.57142857  0.44074074  1
  Ti  Ti5399  1  0.50000000  0.64285714  0.44074074  1
  Ti  Ti5400  1  0.50000000  0.71428571  0.44074074  1
  Ti  Ti5401  1  0.50000000  0.78571429  0.44074074  1
  Ti  Ti5402  1  0.50000000  0.85714286  0.44074074  1
  Ti  Ti5403  1  0.50000000  0.92857143  0.44074074  1
  Ti  Ti5404  1  0.57142857  0.00000000  0.44074074  1
  Ti  Ti5405  1  0.57142857  0.07142857  0.44074074  1
  Ti  Ti5406  1  0.57142857  0.14285714  0.44074074  1
  Ti  Ti5407  1  0.57142857  0.21428571  0.44074074  1
  Ti  Ti5408  1  0.57142857  0.28571429  0.44074074  1
  Ti  Ti5409  1  0.57142857  0.35714286  0.44074074  1
  Ti  Ti5410  1  0.57142857  0.42857143  0.44074074  1
  Ti  Ti5411  1  0.57142857  0.50000000  0.44074074  1
  Ti  Ti5412  1  0.57142857  0.57142857  0.44074074  1
  Ti  Ti5413  1  0.57142857  0.64285714  0.44074074  1
  Ti  Ti5414  1  0.57142857  0.71428571  0.44074074  1
  Ti  Ti5415  1  0.57142857  0.78571429  0.44074074  1
  Ti  Ti5416  1  0.57142857  0.85714286  0.44074074  1
  Ti  Ti5417  1  0.57142857  0.92857143  0.44074074  1
  Ti  Ti5418  1  0.64285714  0.00000000  0.44074074  1
  Ti  Ti5419  1  0.64285714  0.07142857  0.44074074  1
  Ti  Ti5420  1  0.64285714  0.14285714  0.44074074  1
  Ti  Ti5421  1  0.64285714  0.21428571  0.44074074  1
  Ti  Ti5422  1  0.64285714  0.28571429  0.44074074  1
  Ti  Ti5423  1  0.64285714  0.35714286  0.44074074  1
  Ti  Ti5424  1  0.64285714  0.42857143  0.44074074  1
  Ti  Ti5425  1  0.64285714  0.50000000  0.44074074  1
  Ti  Ti5426  1  0.64285714  0.57142857  0.44074074  1
  Ti  Ti5427  1  0.64285714  0.64285714  0.44074074  1
  Ti  Ti5428  1  0.64285714  0.71428571  0.44074074  1
  Ti  Ti5429  1  0.64285714  0.78571429  0.44074074  1
  Ti  Ti5430  1  0.64285714  0.85714286  0.44074074  1
  Ti  Ti5431  1  0.64285714  0.92857143  0.44074074  1
  Ti  Ti5432  1  0.71428571  0.00000000  0.44074074  1
  Ti  Ti5433  1  0.71428571  0.07142857  0.44074074  1
  Ti  Ti5434  1  0.71428571  0.14285714  0.44074074  1
  Ti  Ti5435  1  0.71428571  0.21428571  0.44074074  1
  Ti  Ti5436  1  0.71428571  0.28571429  0.44074074  1
  Ti  Ti5437  1  0.71428571  0.35714286  0.44074074  1
  Ti  Ti5438  1  0.71428571  0.42857143  0.44074074  1
  Ti  Ti5439  1  0.71428571  0.50000000  0.44074074  1
  Ti  Ti5440  1  0.71428571  0.57142857  0.44074074  1
  Ti  Ti5441  1  0.71428571  0.64285714  0.44074074  1
  Ti  Ti5442  1  0.71428571  0.71428571  0.44074074  1
  Ti  Ti5443  1  0.71428571  0.78571429  0.44074074  1
  Ti  Ti5444  1  0.71428571  0.85714286  0.44074074  1
  Ti  Ti5445  1  0.71428571  0.92857143  0.44074074  1
  Ti  Ti5446  1  0.78571429  0.00000000  0.44074074  1
  Ti  Ti5447  1  0.78571429  0.07142857  0.44074074  1
  Ti  Ti5448  1  0.78571429  0.14285714  0.44074074  1
  Ti  Ti5449  1  0.78571429  0.21428571  0.44074074  1
  Ti  Ti5450  1  0.78571429  0.28571429  0.44074074  1
  Ti  Ti5451  1  0.78571429  0.35714286  0.44074074  1
  Ti  Ti5452  1  0.78571429  0.42857143  0.44074074  1
  Ti  Ti5453  1  0.78571429  0.50000000  0.44074074  1
  Ti  Ti5454  1  0.78571429  0.57142857  0.44074074  1
  Ti  Ti5455  1  0.78571429  0.64285714  0.44074074  1
  Ti  Ti5456  1  0.78571429  0.71428571  0.44074074  1
  Ti  Ti5457  1  0.78571429  0.78571429  0.44074074  1
  Ti  Ti5458  1  0.78571429  0.85714286  0.44074074  1
  Ti  Ti5459  1  0.78571429  0.92857143  0.44074074  1
  Ti  Ti5460  1  0.85714286  0.00000000  0.44074074  1
  Ti  Ti5461  1  0.85714286  0.07142857  0.44074074  1
  Ti  Ti5462  1  0.85714286  0.14285714  0.44074074  1
  Ti  Ti5463  1  0.85714286  0.21428571  0.44074074  1
  Ti  Ti5464  1  0.85714286  0.28571429  0.44074074  1
  Ti  Ti5465  1  0.85714286  0.35714286  0.44074074  1
  Ti  Ti5466  1  0.85714286  0.42857143  0.44074074  1
  Ti  Ti5467  1  0.85714286  0.50000000  0.44074074  1
  Ti  Ti5468  1  0.85714286  0.57142857  0.44074074  1
  Ti  Ti5469  1  0.85714286  0.64285714  0.44074074  1
  Ti  Ti5470  1  0.85714286  0.71428571  0.44074074  1
  Ti  Ti5471  1  0.85714286  0.78571429  0.44074074  1
  Ti  Ti5472  1  0.85714286  0.85714286  0.44074074  1
  Ti  Ti5473  1  0.85714286  0.92857143  0.44074074  1
  Ti  Ti5474  1  0.92857143  0.00000000  0.44074074  1
  Ti  Ti5475  1  0.92857143  0.07142857  0.44074074  1
  Ti  Ti5476  1  0.92857143  0.14285714  0.44074074  1
  Ti  Ti5477  1  0.92857143  0.21428571  0.44074074  1
  Ti  Ti5478  1  0.92857143  0.28571429  0.44074074  1
  Ti  Ti5479  1  0.92857143  0.35714286  0.44074074  1
  Ti  Ti5480  1  0.92857143  0.42857143  0.44074074  1
  Ti  Ti5481  1  0.92857143  0.50000000  0.44074074  1
  Ti  Ti5482  1  0.92857143  0.57142857  0.44074074  1
  Ti  Ti5483  1  0.92857143  0.64285714  0.44074074  1
  Ti  Ti5484  1  0.92857143  0.71428571  0.44074074  1
  Ti  Ti5485  1  0.92857143  0.78571429  0.44074074  1
  Ti  Ti5486  1  0.92857143  0.85714286  0.44074074  1
  Ti  Ti5487  1  0.92857143  0.92857143  0.44074074  1
  Ti  Ti5488  1  0.02380950  0.04761907  0.42962963  1
  Ti  Ti5489  1  0.02380950  0.11904764  0.42962963  1
  Ti  Ti5490  1  0.02380950  0.19047621  0.42962963  1
  Ti  Ti5491  1  0.02380950  0.26190479  0.42962963  1
  Ti  Ti5492  1  0.02380950  0.33333336  0.42962963  1
  Ti  Ti5493  1  0.02380950  0.40476193  0.42962963  1
  Ti  Ti5494  1  0.02380950  0.47619050  0.42962963  1
  Ti  Ti5495  1  0.02380950  0.54761907  0.42962963  1
  Ti  Ti5496  1  0.02380950  0.61904764  0.42962963  1
  Ti  Ti5497  1  0.02380950  0.69047621  0.42962963  1
  Ti  Ti5498  1  0.02380950  0.76190479  0.42962963  1
  Ti  Ti5499  1  0.02380950  0.83333336  0.42962963  1
  Ti  Ti5500  1  0.02380950  0.90476193  0.42962963  1
  Ti  Ti5501  1  0.02380950  0.97619050  0.42962963  1
  Ti  Ti5502  1  0.09523807  0.04761907  0.42962963  1
  Ti  Ti5503  1  0.09523807  0.11904764  0.42962963  1
  Ti  Ti5504  1  0.09523807  0.19047621  0.42962963  1
  Ti  Ti5505  1  0.09523807  0.26190479  0.42962963  1
  Ti  Ti5506  1  0.09523807  0.33333336  0.42962963  1
  Ti  Ti5507  1  0.09523807  0.40476193  0.42962963  1
  Ti  Ti5508  1  0.09523807  0.47619050  0.42962963  1
  Ti  Ti5509  1  0.09523807  0.54761907  0.42962963  1
  Ti  Ti5510  1  0.09523807  0.61904764  0.42962963  1
  Ti  Ti5511  1  0.09523807  0.69047621  0.42962963  1
  Ti  Ti5512  1  0.09523807  0.76190479  0.42962963  1
  Ti  Ti5513  1  0.09523807  0.83333336  0.42962963  1
  Ti  Ti5514  1  0.09523807  0.90476193  0.42962963  1
  Ti  Ti5515  1  0.09523807  0.97619050  0.42962963  1
  Ti  Ti5516  1  0.16666664  0.04761907  0.42962963  1
  Ti  Ti5517  1  0.16666664  0.11904764  0.42962963  1
  Ti  Ti5518  1  0.16666664  0.19047621  0.42962963  1
  Ti  Ti5519  1  0.16666664  0.26190479  0.42962963  1
  Ti  Ti5520  1  0.16666664  0.33333336  0.42962963  1
  Ti  Ti5521  1  0.16666664  0.40476193  0.42962963  1
  Ti  Ti5522  1  0.16666664  0.47619050  0.42962963  1
  Ti  Ti5523  1  0.16666664  0.54761907  0.42962963  1
  Ti  Ti5524  1  0.16666664  0.61904764  0.42962963  1
  Ti  Ti5525  1  0.16666664  0.69047621  0.42962963  1
  Ti  Ti5526  1  0.16666664  0.76190479  0.42962963  1
  Ti  Ti5527  1  0.16666664  0.83333336  0.42962963  1
  Ti  Ti5528  1  0.16666664  0.90476193  0.42962963  1
  Ti  Ti5529  1  0.16666664  0.97619050  0.42962963  1
  Ti  Ti5530  1  0.23809521  0.04761907  0.42962963  1
  Ti  Ti5531  1  0.23809521  0.11904764  0.42962963  1
  Ti  Ti5532  1  0.23809521  0.19047621  0.42962963  1
  Ti  Ti5533  1  0.23809521  0.26190479  0.42962963  1
  Ti  Ti5534  1  0.23809521  0.33333336  0.42962963  1
  Ti  Ti5535  1  0.23809521  0.40476193  0.42962963  1
  Ti  Ti5536  1  0.23809521  0.47619050  0.42962963  1
  Ti  Ti5537  1  0.23809521  0.54761907  0.42962963  1
  Ti  Ti5538  1  0.23809521  0.61904764  0.42962963  1
  Ti  Ti5539  1  0.23809521  0.69047621  0.42962963  1
  Ti  Ti5540  1  0.23809521  0.76190479  0.42962963  1
  Ti  Ti5541  1  0.23809521  0.83333336  0.42962963  1
  Ti  Ti5542  1  0.23809521  0.90476193  0.42962963  1
  Ti  Ti5543  1  0.23809521  0.97619050  0.42962963  1
  Ti  Ti5544  1  0.30952379  0.04761907  0.42962963  1
  Ti  Ti5545  1  0.30952379  0.11904764  0.42962963  1
  Ti  Ti5546  1  0.30952379  0.19047621  0.42962963  1
  Ti  Ti5547  1  0.30952379  0.26190479  0.42962963  1
  Ti  Ti5548  1  0.30952379  0.33333336  0.42962963  1
  Ti  Ti5549  1  0.30952379  0.40476193  0.42962963  1
  Ti  Ti5550  1  0.30952379  0.47619050  0.42962963  1
  Ti  Ti5551  1  0.30952379  0.54761907  0.42962963  1
  Ti  Ti5552  1  0.30952379  0.61904764  0.42962963  1
  Ti  Ti5553  1  0.30952379  0.69047621  0.42962963  1
  Ti  Ti5554  1  0.30952379  0.76190479  0.42962963  1
  Ti  Ti5555  1  0.30952379  0.83333336  0.42962963  1
  Ti  Ti5556  1  0.30952379  0.90476193  0.42962963  1
  Ti  Ti5557  1  0.30952379  0.97619050  0.42962963  1
  Ti  Ti5558  1  0.38095236  0.04761907  0.42962963  1
  Ti  Ti5559  1  0.38095236  0.11904764  0.42962963  1
  Ti  Ti5560  1  0.38095236  0.19047621  0.42962963  1
  Ti  Ti5561  1  0.38095236  0.26190479  0.42962963  1
  Ti  Ti5562  1  0.38095236  0.33333336  0.42962963  1
  Ti  Ti5563  1  0.38095236  0.40476193  0.42962963  1
  Ti  Ti5564  1  0.38095236  0.47619050  0.42962963  1
  Ti  Ti5565  1  0.38095236  0.54761907  0.42962963  1
  Ti  Ti5566  1  0.38095236  0.61904764  0.42962963  1
  Ti  Ti5567  1  0.38095236  0.69047621  0.42962963  1
  Ti  Ti5568  1  0.38095236  0.76190479  0.42962963  1
  Ti  Ti5569  1  0.38095236  0.83333336  0.42962963  1
  Ti  Ti5570  1  0.38095236  0.90476193  0.42962963  1
  Ti  Ti5571  1  0.38095236  0.97619050  0.42962963  1
  Ti  Ti5572  1  0.45238093  0.04761907  0.42962963  1
  Ti  Ti5573  1  0.45238093  0.11904764  0.42962963  1
  Ti  Ti5574  1  0.45238093  0.19047621  0.42962963  1
  Ti  Ti5575  1  0.45238093  0.26190479  0.42962963  1
  Ti  Ti5576  1  0.45238093  0.33333336  0.42962963  1
  Ti  Ti5577  1  0.45238093  0.40476193  0.42962963  1
  Ti  Ti5578  1  0.45238093  0.47619050  0.42962963  1
  Ti  Ti5579  1  0.45238093  0.54761907  0.42962963  1
  Ti  Ti5580  1  0.45238093  0.61904764  0.42962963  1
  Ti  Ti5581  1  0.45238093  0.69047621  0.42962963  1
  Ti  Ti5582  1  0.45238093  0.76190479  0.42962963  1
  Ti  Ti5583  1  0.45238093  0.83333336  0.42962963  1
  Ti  Ti5584  1  0.45238093  0.90476193  0.42962963  1
  Ti  Ti5585  1  0.45238093  0.97619050  0.42962963  1
  Ti  Ti5586  1  0.52380950  0.04761907  0.42962963  1
  Ti  Ti5587  1  0.52380950  0.11904764  0.42962963  1
  Ti  Ti5588  1  0.52380950  0.19047621  0.42962963  1
  Ti  Ti5589  1  0.52380950  0.26190479  0.42962963  1
  Ti  Ti5590  1  0.52380950  0.33333336  0.42962963  1
  Ti  Ti5591  1  0.52380950  0.40476193  0.42962963  1
  Ti  Ti5592  1  0.52380950  0.47619050  0.42962963  1
  Ti  Ti5593  1  0.52380950  0.54761907  0.42962963  1
  Ti  Ti5594  1  0.52380950  0.61904764  0.42962963  1
  Ti  Ti5595  1  0.52380950  0.69047621  0.42962963  1
  Ti  Ti5596  1  0.52380950  0.76190479  0.42962963  1
  Ti  Ti5597  1  0.52380950  0.83333336  0.42962963  1
  Ti  Ti5598  1  0.52380950  0.90476193  0.42962963  1
  Ti  Ti5599  1  0.52380950  0.97619050  0.42962963  1
  Ti  Ti5600  1  0.59523807  0.04761907  0.42962963  1
  Ti  Ti5601  1  0.59523807  0.11904764  0.42962963  1
  Ti  Ti5602  1  0.59523807  0.19047621  0.42962963  1
  Ti  Ti5603  1  0.59523807  0.26190479  0.42962963  1
  Ti  Ti5604  1  0.59523807  0.33333336  0.42962963  1
  Ti  Ti5605  1  0.59523807  0.40476193  0.42962963  1
  Ti  Ti5606  1  0.59523807  0.47619050  0.42962963  1
  Ti  Ti5607  1  0.59523807  0.54761907  0.42962963  1
  Ti  Ti5608  1  0.59523807  0.61904764  0.42962963  1
  Ti  Ti5609  1  0.59523807  0.69047621  0.42962963  1
  Ti  Ti5610  1  0.59523807  0.76190479  0.42962963  1
  Ti  Ti5611  1  0.59523807  0.83333336  0.42962963  1
  Ti  Ti5612  1  0.59523807  0.90476193  0.42962963  1
  Ti  Ti5613  1  0.59523807  0.97619050  0.42962963  1
  Ti  Ti5614  1  0.66666664  0.04761907  0.42962963  1
  Ti  Ti5615  1  0.66666664  0.11904764  0.42962963  1
  Ti  Ti5616  1  0.66666664  0.19047621  0.42962963  1
  Ti  Ti5617  1  0.66666664  0.26190479  0.42962963  1
  Ti  Ti5618  1  0.66666664  0.33333336  0.42962963  1
  Ti  Ti5619  1  0.66666664  0.40476193  0.42962963  1
  Ti  Ti5620  1  0.66666664  0.47619050  0.42962963  1
  Ti  Ti5621  1  0.66666664  0.54761907  0.42962963  1
  Ti  Ti5622  1  0.66666664  0.61904764  0.42962963  1
  Ti  Ti5623  1  0.66666664  0.69047621  0.42962963  1
  Ti  Ti5624  1  0.66666664  0.76190479  0.42962963  1
  Ti  Ti5625  1  0.66666664  0.83333336  0.42962963  1
  Ti  Ti5626  1  0.66666664  0.90476193  0.42962963  1
  Ti  Ti5627  1  0.66666664  0.97619050  0.42962963  1
  Ti  Ti5628  1  0.73809521  0.04761907  0.42962963  1
  Ti  Ti5629  1  0.73809521  0.11904764  0.42962963  1
  Ti  Ti5630  1  0.73809521  0.19047621  0.42962963  1
  Ti  Ti5631  1  0.73809521  0.26190479  0.42962963  1
  Ti  Ti5632  1  0.73809521  0.33333336  0.42962963  1
  Ti  Ti5633  1  0.73809521  0.40476193  0.42962963  1
  Ti  Ti5634  1  0.73809521  0.47619050  0.42962963  1
  Ti  Ti5635  1  0.73809521  0.54761907  0.42962963  1
  Ti  Ti5636  1  0.73809521  0.61904764  0.42962963  1
  Ti  Ti5637  1  0.73809521  0.69047621  0.42962963  1
  Ti  Ti5638  1  0.73809521  0.76190479  0.42962963  1
  Ti  Ti5639  1  0.73809521  0.83333336  0.42962963  1
  Ti  Ti5640  1  0.73809521  0.90476193  0.42962963  1
  Ti  Ti5641  1  0.73809521  0.97619050  0.42962963  1
  Ti  Ti5642  1  0.80952379  0.04761907  0.42962963  1
  Ti  Ti5643  1  0.80952379  0.11904764  0.42962963  1
  Ti  Ti5644  1  0.80952379  0.19047621  0.42962963  1
  Ti  Ti5645  1  0.80952379  0.26190479  0.42962963  1
  Ti  Ti5646  1  0.80952379  0.33333336  0.42962963  1
  Ti  Ti5647  1  0.80952379  0.40476193  0.42962963  1
  Ti  Ti5648  1  0.80952379  0.47619050  0.42962963  1
  Ti  Ti5649  1  0.80952379  0.54761907  0.42962963  1
  Ti  Ti5650  1  0.80952379  0.61904764  0.42962963  1
  Ti  Ti5651  1  0.80952379  0.69047621  0.42962963  1
  Ti  Ti5652  1  0.80952379  0.76190479  0.42962963  1
  Ti  Ti5653  1  0.80952379  0.83333336  0.42962963  1
  Ti  Ti5654  1  0.80952379  0.90476193  0.42962963  1
  Ti  Ti5655  1  0.80952379  0.97619050  0.42962963  1
  Ti  Ti5656  1  0.88095236  0.04761907  0.42962963  1
  Ti  Ti5657  1  0.88095236  0.11904764  0.42962963  1
  Ti  Ti5658  1  0.88095236  0.19047621  0.42962963  1
  Ti  Ti5659  1  0.88095236  0.26190479  0.42962963  1
  Ti  Ti5660  1  0.88095236  0.33333336  0.42962963  1
  Ti  Ti5661  1  0.88095236  0.40476193  0.42962963  1
  Ti  Ti5662  1  0.88095236  0.47619050  0.42962963  1
  Ti  Ti5663  1  0.88095236  0.54761907  0.42962963  1
  Ti  Ti5664  1  0.88095236  0.61904764  0.42962963  1
  Ti  Ti5665  1  0.88095236  0.69047621  0.42962963  1
  Ti  Ti5666  1  0.88095236  0.76190479  0.42962963  1
  Ti  Ti5667  1  0.88095236  0.83333336  0.42962963  1
  Ti  Ti5668  1  0.88095236  0.90476193  0.42962963  1
  Ti  Ti5669  1  0.88095236  0.97619050  0.42962963  1
  Ti  Ti5670  1  0.95238093  0.04761907  0.42962963  1
  Ti  Ti5671  1  0.95238093  0.11904764  0.42962963  1
  Ti  Ti5672  1  0.95238093  0.19047621  0.42962963  1
  Ti  Ti5673  1  0.95238093  0.26190479  0.42962963  1
  Ti  Ti5674  1  0.95238093  0.33333336  0.42962963  1
  Ti  Ti5675  1  0.95238093  0.40476193  0.42962963  1
  Ti  Ti5676  1  0.95238093  0.47619050  0.42962963  1
  Ti  Ti5677  1  0.95238093  0.54761907  0.42962963  1
  Ti  Ti5678  1  0.95238093  0.61904764  0.42962963  1
  Ti  Ti5679  1  0.95238093  0.69047621  0.42962963  1
  Ti  Ti5680  1  0.95238093  0.76190479  0.42962963  1
  Ti  Ti5681  1  0.95238093  0.83333336  0.42962963  1
  Ti  Ti5682  1  0.95238093  0.90476193  0.42962963  1
  Ti  Ti5683  1  0.95238093  0.97619050  0.42962963  1
  Ti  Ti5684  1  0.04761907  0.02380950  0.42962963  1
  Ti  Ti5685  1  0.04761907  0.09523807  0.42962963  1
  Ti  Ti5686  1  0.04761907  0.16666664  0.42962963  1
  Ti  Ti5687  1  0.04761907  0.23809521  0.42962963  1
  Ti  Ti5688  1  0.04761907  0.30952379  0.42962963  1
  Ti  Ti5689  1  0.04761907  0.38095236  0.42962963  1
  Ti  Ti5690  1  0.04761907  0.45238093  0.42962963  1
  Ti  Ti5691  1  0.04761907  0.52380950  0.42962963  1
  Ti  Ti5692  1  0.04761907  0.59523807  0.42962963  1
  Ti  Ti5693  1  0.04761907  0.66666664  0.42962963  1
  Ti  Ti5694  1  0.04761907  0.73809521  0.42962963  1
  Ti  Ti5695  1  0.04761907  0.80952379  0.42962963  1
  Ti  Ti5696  1  0.04761907  0.88095236  0.42962963  1
  Ti  Ti5697  1  0.04761907  0.95238093  0.42962963  1
  Ti  Ti5698  1  0.11904764  0.02380950  0.42962963  1
  Ti  Ti5699  1  0.11904764  0.09523807  0.42962963  1
  Ti  Ti5700  1  0.11904764  0.16666664  0.42962963  1
  Ti  Ti5701  1  0.11904764  0.23809521  0.42962963  1
  Ti  Ti5702  1  0.11904764  0.30952379  0.42962963  1
  Ti  Ti5703  1  0.11904764  0.38095236  0.42962963  1
  Ti  Ti5704  1  0.11904764  0.45238093  0.42962963  1
  Ti  Ti5705  1  0.11904764  0.52380950  0.42962963  1
  Ti  Ti5706  1  0.11904764  0.59523807  0.42962963  1
  Ti  Ti5707  1  0.11904764  0.66666664  0.42962963  1
  Ti  Ti5708  1  0.11904764  0.73809521  0.42962963  1
  Ti  Ti5709  1  0.11904764  0.80952379  0.42962963  1
  Ti  Ti5710  1  0.11904764  0.88095236  0.42962963  1
  Ti  Ti5711  1  0.11904764  0.95238093  0.42962963  1
  Ti  Ti5712  1  0.19047621  0.02380950  0.42962963  1
  Ti  Ti5713  1  0.19047621  0.09523807  0.42962963  1
  Ti  Ti5714  1  0.19047621  0.16666664  0.42962963  1
  Ti  Ti5715  1  0.19047621  0.23809521  0.42962963  1
  Ti  Ti5716  1  0.19047621  0.30952379  0.42962963  1
  Ti  Ti5717  1  0.19047621  0.38095236  0.42962963  1
  Ti  Ti5718  1  0.19047621  0.45238093  0.42962963  1
  Ti  Ti5719  1  0.19047621  0.52380950  0.42962963  1
  Ti  Ti5720  1  0.19047621  0.59523807  0.42962963  1
  Ti  Ti5721  1  0.19047621  0.66666664  0.42962963  1
  Ti  Ti5722  1  0.19047621  0.73809521  0.42962963  1
  Ti  Ti5723  1  0.19047621  0.80952379  0.42962963  1
  Ti  Ti5724  1  0.19047621  0.88095236  0.42962963  1
  Ti  Ti5725  1  0.19047621  0.95238093  0.42962963  1
  Ti  Ti5726  1  0.26190479  0.02380950  0.42962963  1
  Ti  Ti5727  1  0.26190479  0.09523807  0.42962963  1
  Ti  Ti5728  1  0.26190479  0.16666664  0.42962963  1
  Ti  Ti5729  1  0.26190479  0.23809521  0.42962963  1
  Ti  Ti5730  1  0.26190479  0.30952379  0.42962963  1
  Ti  Ti5731  1  0.26190479  0.38095236  0.42962963  1
  Ti  Ti5732  1  0.26190479  0.45238093  0.42962963  1
  Ti  Ti5733  1  0.26190479  0.52380950  0.42962963  1
  Ti  Ti5734  1  0.26190479  0.59523807  0.42962963  1
  Ti  Ti5735  1  0.26190479  0.66666664  0.42962963  1
  Ti  Ti5736  1  0.26190479  0.73809521  0.42962963  1
  Ti  Ti5737  1  0.26190479  0.80952379  0.42962963  1
  Ti  Ti5738  1  0.26190479  0.88095236  0.42962963  1
  Ti  Ti5739  1  0.26190479  0.95238093  0.42962963  1
  Ti  Ti5740  1  0.33333336  0.02380950  0.42962963  1
  Ti  Ti5741  1  0.33333336  0.09523807  0.42962963  1
  Ti  Ti5742  1  0.33333336  0.16666664  0.42962963  1
  Ti  Ti5743  1  0.33333336  0.23809521  0.42962963  1
  Ti  Ti5744  1  0.33333336  0.30952379  0.42962963  1
  Ti  Ti5745  1  0.33333336  0.38095236  0.42962963  1
  Ti  Ti5746  1  0.33333336  0.45238093  0.42962963  1
  Ti  Ti5747  1  0.33333336  0.52380950  0.42962963  1
  Ti  Ti5748  1  0.33333336  0.59523807  0.42962963  1
  Ti  Ti5749  1  0.33333336  0.66666664  0.42962963  1
  Ti  Ti5750  1  0.33333336  0.73809521  0.42962963  1
  Ti  Ti5751  1  0.33333336  0.80952379  0.42962963  1
  Ti  Ti5752  1  0.33333336  0.88095236  0.42962963  1
  Ti  Ti5753  1  0.33333336  0.95238093  0.42962963  1
  Ti  Ti5754  1  0.40476193  0.02380950  0.42962963  1
  Ti  Ti5755  1  0.40476193  0.09523807  0.42962963  1
  Ti  Ti5756  1  0.40476193  0.16666664  0.42962963  1
  Ti  Ti5757  1  0.40476193  0.23809521  0.42962963  1
  Ti  Ti5758  1  0.40476193  0.30952379  0.42962963  1
  Ti  Ti5759  1  0.40476193  0.38095236  0.42962963  1
  Ti  Ti5760  1  0.40476193  0.45238093  0.42962963  1
  Ti  Ti5761  1  0.40476193  0.52380950  0.42962963  1
  Ti  Ti5762  1  0.40476193  0.59523807  0.42962963  1
  Ti  Ti5763  1  0.40476193  0.66666664  0.42962963  1
  Ti  Ti5764  1  0.40476193  0.73809521  0.42962963  1
  Ti  Ti5765  1  0.40476193  0.80952379  0.42962963  1
  Ti  Ti5766  1  0.40476193  0.88095236  0.42962963  1
  Ti  Ti5767  1  0.40476193  0.95238093  0.42962963  1
  Ti  Ti5768  1  0.47619050  0.02380950  0.42962963  1
  Ti  Ti5769  1  0.47619050  0.09523807  0.42962963  1
  Ti  Ti5770  1  0.47619050  0.16666664  0.42962963  1
  Ti  Ti5771  1  0.47619050  0.23809521  0.42962963  1
  Ti  Ti5772  1  0.47619050  0.30952379  0.42962963  1
  Ti  Ti5773  1  0.47619050  0.38095236  0.42962963  1
  Ti  Ti5774  1  0.47619050  0.45238093  0.42962963  1
  Ti  Ti5775  1  0.47619050  0.52380950  0.42962963  1
  Ti  Ti5776  1  0.47619050  0.59523807  0.42962963  1
  Ti  Ti5777  1  0.47619050  0.66666664  0.42962963  1
  Ti  Ti5778  1  0.47619050  0.73809521  0.42962963  1
  Ti  Ti5779  1  0.47619050  0.80952379  0.42962963  1
  Ti  Ti5780  1  0.47619050  0.88095236  0.42962963  1
  Ti  Ti5781  1  0.47619050  0.95238093  0.42962963  1
  Ti  Ti5782  1  0.54761907  0.02380950  0.42962963  1
  Ti  Ti5783  1  0.54761907  0.09523807  0.42962963  1
  Ti  Ti5784  1  0.54761907  0.16666664  0.42962963  1
  Ti  Ti5785  1  0.54761907  0.23809521  0.42962963  1
  Ti  Ti5786  1  0.54761907  0.30952379  0.42962963  1
  Ti  Ti5787  1  0.54761907  0.38095236  0.42962963  1
  Ti  Ti5788  1  0.54761907  0.45238093  0.42962963  1
  Ti  Ti5789  1  0.54761907  0.52380950  0.42962963  1
  Ti  Ti5790  1  0.54761907  0.59523807  0.42962963  1
  Ti  Ti5791  1  0.54761907  0.66666664  0.42962963  1
  Ti  Ti5792  1  0.54761907  0.73809521  0.42962963  1
  Ti  Ti5793  1  0.54761907  0.80952379  0.42962963  1
  Ti  Ti5794  1  0.54761907  0.88095236  0.42962963  1
  Ti  Ti5795  1  0.54761907  0.95238093  0.42962963  1
  Ti  Ti5796  1  0.61904764  0.02380950  0.42962963  1
  Ti  Ti5797  1  0.61904764  0.09523807  0.42962963  1
  Ti  Ti5798  1  0.61904764  0.16666664  0.42962963  1
  Ti  Ti5799  1  0.61904764  0.23809521  0.42962963  1
  Ti  Ti5800  1  0.61904764  0.30952379  0.42962963  1
  Ti  Ti5801  1  0.61904764  0.38095236  0.42962963  1
  Ti  Ti5802  1  0.61904764  0.45238093  0.42962963  1
  Ti  Ti5803  1  0.61904764  0.52380950  0.42962963  1
  Ti  Ti5804  1  0.61904764  0.59523807  0.42962963  1
  Ti  Ti5805  1  0.61904764  0.66666664  0.42962963  1
  Ti  Ti5806  1  0.61904764  0.73809521  0.42962963  1
  Ti  Ti5807  1  0.61904764  0.80952379  0.42962963  1
  Ti  Ti5808  1  0.61904764  0.88095236  0.42962963  1
  Ti  Ti5809  1  0.61904764  0.95238093  0.42962963  1
  Ti  Ti5810  1  0.69047621  0.02380950  0.42962963  1
  Ti  Ti5811  1  0.69047621  0.09523807  0.42962963  1
  Ti  Ti5812  1  0.69047621  0.16666664  0.42962963  1
  Ti  Ti5813  1  0.69047621  0.23809521  0.42962963  1
  Ti  Ti5814  1  0.69047621  0.30952379  0.42962963  1
  Ti  Ti5815  1  0.69047621  0.38095236  0.42962963  1
  Ti  Ti5816  1  0.69047621  0.45238093  0.42962963  1
  Ti  Ti5817  1  0.69047621  0.52380950  0.42962963  1
  Ti  Ti5818  1  0.69047621  0.59523807  0.42962963  1
  Ti  Ti5819  1  0.69047621  0.66666664  0.42962963  1
  Ti  Ti5820  1  0.69047621  0.73809521  0.42962963  1
  Ti  Ti5821  1  0.69047621  0.80952379  0.42962963  1
  Ti  Ti5822  1  0.69047621  0.88095236  0.42962963  1
  Ti  Ti5823  1  0.69047621  0.95238093  0.42962963  1
  Ti  Ti5824  1  0.76190479  0.02380950  0.42962963  1
  Ti  Ti5825  1  0.76190479  0.09523807  0.42962963  1
  Ti  Ti5826  1  0.76190479  0.16666664  0.42962963  1
  Ti  Ti5827  1  0.76190479  0.23809521  0.42962963  1
  Ti  Ti5828  1  0.76190479  0.30952379  0.42962963  1
  Ti  Ti5829  1  0.76190479  0.38095236  0.42962963  1
  Ti  Ti5830  1  0.76190479  0.45238093  0.42962963  1
  Ti  Ti5831  1  0.76190479  0.52380950  0.42962963  1
  Ti  Ti5832  1  0.76190479  0.59523807  0.42962963  1
  Ti  Ti5833  1  0.76190479  0.66666664  0.42962963  1
  Ti  Ti5834  1  0.76190479  0.73809521  0.42962963  1
  Ti  Ti5835  1  0.76190479  0.80952379  0.42962963  1
  Ti  Ti5836  1  0.76190479  0.88095236  0.42962963  1
  Ti  Ti5837  1  0.76190479  0.95238093  0.42962963  1
  Ti  Ti5838  1  0.83333336  0.02380950  0.42962963  1
  Ti  Ti5839  1  0.83333336  0.09523807  0.42962963  1
  Ti  Ti5840  1  0.83333336  0.16666664  0.42962963  1
  Ti  Ti5841  1  0.83333336  0.23809521  0.42962963  1
  Ti  Ti5842  1  0.83333336  0.30952379  0.42962963  1
  Ti  Ti5843  1  0.83333336  0.38095236  0.42962963  1
  Ti  Ti5844  1  0.83333336  0.45238093  0.42962963  1
  Ti  Ti5845  1  0.83333336  0.52380950  0.42962963  1
  Ti  Ti5846  1  0.83333336  0.59523807  0.42962963  1
  Ti  Ti5847  1  0.83333336  0.66666664  0.42962963  1
  Ti  Ti5848  1  0.83333336  0.73809521  0.42962963  1
  Ti  Ti5849  1  0.83333336  0.80952379  0.42962963  1
  Ti  Ti5850  1  0.83333336  0.88095236  0.42962963  1
  Ti  Ti5851  1  0.83333336  0.95238093  0.42962963  1
  Ti  Ti5852  1  0.90476193  0.02380950  0.42962963  1
  Ti  Ti5853  1  0.90476193  0.09523807  0.42962963  1
  Ti  Ti5854  1  0.90476193  0.16666664  0.42962963  1
  Ti  Ti5855  1  0.90476193  0.23809521  0.42962963  1
  Ti  Ti5856  1  0.90476193  0.30952379  0.42962963  1
  Ti  Ti5857  1  0.90476193  0.38095236  0.42962963  1
  Ti  Ti5858  1  0.90476193  0.45238093  0.42962963  1
  Ti  Ti5859  1  0.90476193  0.52380950  0.42962963  1
  Ti  Ti5860  1  0.90476193  0.59523807  0.42962963  1
  Ti  Ti5861  1  0.90476193  0.66666664  0.42962963  1
  Ti  Ti5862  1  0.90476193  0.73809521  0.42962963  1
  Ti  Ti5863  1  0.90476193  0.80952379  0.42962963  1
  Ti  Ti5864  1  0.90476193  0.88095236  0.42962963  1
  Ti  Ti5865  1  0.90476193  0.95238093  0.42962963  1
  Ti  Ti5866  1  0.97619050  0.02380950  0.42962963  1
  Ti  Ti5867  1  0.97619050  0.09523807  0.42962963  1
  Ti  Ti5868  1  0.97619050  0.16666664  0.42962963  1
  Ti  Ti5869  1  0.97619050  0.23809521  0.42962963  1
  Ti  Ti5870  1  0.97619050  0.30952379  0.42962963  1
  Ti  Ti5871  1  0.97619050  0.38095236  0.42962963  1
  Ti  Ti5872  1  0.97619050  0.45238093  0.42962963  1
  Ti  Ti5873  1  0.97619050  0.52380950  0.42962963  1
  Ti  Ti5874  1  0.97619050  0.59523807  0.42962963  1
  Ti  Ti5875  1  0.97619050  0.66666664  0.42962963  1
  Ti  Ti5876  1  0.97619050  0.73809521  0.42962963  1
  Ti  Ti5877  1  0.97619050  0.80952379  0.42962963  1
  Ti  Ti5878  1  0.97619050  0.88095236  0.42962963  1
  Ti  Ti5879  1  0.97619050  0.95238093  0.42962963  1
  Ti  Ti5880  1  0.00000000  0.00000000  0.46296296  1
  Ti  Ti5881  1  0.00000000  0.07142857  0.46296296  1
  Ti  Ti5882  1  0.00000000  0.14285714  0.46296296  1
  Ti  Ti5883  1  0.00000000  0.21428571  0.46296296  1
  Ti  Ti5884  1  0.00000000  0.28571429  0.46296296  1
  Ti  Ti5885  1  0.00000000  0.35714286  0.46296296  1
  Ti  Ti5886  1  0.00000000  0.42857143  0.46296296  1
  Ti  Ti5887  1  0.00000000  0.50000000  0.46296296  1
  Ti  Ti5888  1  0.00000000  0.57142857  0.46296296  1
  Ti  Ti5889  1  0.00000000  0.64285714  0.46296296  1
  Ti  Ti5890  1  0.00000000  0.71428571  0.46296296  1
  Ti  Ti5891  1  1.00000000  0.78571429  0.46296296  1
  Ti  Ti5892  1  0.00000000  0.85714286  0.46296296  1
  Ti  Ti5893  1  0.00000000  0.92857143  0.46296296  1
  Ti  Ti5894  1  0.07142857  0.00000000  0.46296296  1
  Ti  Ti5895  1  0.07142857  0.07142857  0.46296296  1
  Ti  Ti5896  1  0.07142857  0.14285714  0.46296296  1
  Ti  Ti5897  1  0.07142857  0.21428571  0.46296296  1
  Ti  Ti5898  1  0.07142857  0.28571429  0.46296296  1
  Ti  Ti5899  1  0.07142857  0.35714286  0.46296296  1
  Ti  Ti5900  1  0.07142857  0.42857143  0.46296296  1
  Ti  Ti5901  1  0.07142857  0.50000000  0.46296296  1
  Ti  Ti5902  1  0.07142857  0.57142857  0.46296296  1
  Ti  Ti5903  1  0.07142857  0.64285714  0.46296296  1
  Ti  Ti5904  1  0.07142857  0.71428571  0.46296296  1
  Ti  Ti5905  1  0.07142857  0.78571429  0.46296296  1
  Ti  Ti5906  1  0.07142857  0.85714286  0.46296296  1
  Ti  Ti5907  1  0.07142857  0.92857143  0.46296296  1
  Ti  Ti5908  1  0.14285714  0.00000000  0.46296296  1
  Ti  Ti5909  1  0.14285714  0.07142857  0.46296296  1
  Ti  Ti5910  1  0.14285714  0.14285714  0.46296296  1
  Ti  Ti5911  1  0.14285714  0.21428571  0.46296296  1
  Ti  Ti5912  1  0.14285714  0.28571429  0.46296296  1
  Ti  Ti5913  1  0.14285714  0.35714286  0.46296296  1
  Ti  Ti5914  1  0.14285714  0.42857143  0.46296296  1
  Ti  Ti5915  1  0.14285714  0.50000000  0.46296296  1
  Ti  Ti5916  1  0.14285714  0.57142857  0.46296296  1
  Ti  Ti5917  1  0.14285714  0.64285714  0.46296296  1
  Ti  Ti5918  1  0.14285714  0.71428571  0.46296296  1
  Ti  Ti5919  1  0.14285714  0.78571429  0.46296296  1
  Ti  Ti5920  1  0.14285714  0.85714286  0.46296296  1
  Ti  Ti5921  1  0.14285714  0.92857143  0.46296296  1
  Ti  Ti5922  1  0.21428571  0.00000000  0.46296296  1
  Ti  Ti5923  1  0.21428571  0.07142857  0.46296296  1
  Ti  Ti5924  1  0.21428571  0.14285714  0.46296296  1
  Ti  Ti5925  1  0.21428571  0.21428571  0.46296296  1
  Ti  Ti5926  1  0.21428571  0.28571429  0.46296296  1
  Ti  Ti5927  1  0.21428571  0.35714286  0.46296296  1
  Ti  Ti5928  1  0.21428571  0.42857143  0.46296296  1
  Ti  Ti5929  1  0.21428571  0.50000000  0.46296296  1
  Ti  Ti5930  1  0.21428571  0.57142857  0.46296296  1
  Ti  Ti5931  1  0.21428571  0.64285714  0.46296296  1
  Ti  Ti5932  1  0.21428571  0.71428571  0.46296296  1
  Ti  Ti5933  1  0.21428571  0.78571429  0.46296296  1
  Ti  Ti5934  1  0.21428571  0.85714286  0.46296296  1
  Ti  Ti5935  1  0.21428571  0.92857143  0.46296296  1
  Ti  Ti5936  1  0.28571429  0.00000000  0.46296296  1
  Ti  Ti5937  1  0.28571429  0.07142857  0.46296296  1
  Ti  Ti5938  1  0.28571429  0.14285714  0.46296296  1
  Ti  Ti5939  1  0.28571429  0.21428571  0.46296296  1
  Ti  Ti5940  1  0.28571429  0.28571429  0.46296296  1
  Ti  Ti5941  1  0.28571429  0.35714286  0.46296296  1
  Ti  Ti5942  1  0.28571429  0.42857143  0.46296296  1
  Ti  Ti5943  1  0.28571429  0.50000000  0.46296296  1
  Ti  Ti5944  1  0.28571429  0.57142857  0.46296296  1
  Ti  Ti5945  1  0.28571429  0.64285714  0.46296296  1
  Ti  Ti5946  1  0.28571429  0.71428571  0.46296296  1
  Ti  Ti5947  1  0.28571429  0.78571429  0.46296296  1
  Ti  Ti5948  1  0.28571429  0.85714286  0.46296296  1
  Ti  Ti5949  1  0.28571429  0.92857143  0.46296296  1
  Ti  Ti5950  1  0.35714286  0.00000000  0.46296296  1
  Ti  Ti5951  1  0.35714286  0.07142857  0.46296296  1
  Ti  Ti5952  1  0.35714286  0.14285714  0.46296296  1
  Ti  Ti5953  1  0.35714286  0.21428571  0.46296296  1
  Ti  Ti5954  1  0.35714286  0.28571429  0.46296296  1
  Ti  Ti5955  1  0.35714286  0.35714286  0.46296296  1
  Ti  Ti5956  1  0.35714286  0.42857143  0.46296296  1
  Ti  Ti5957  1  0.35714286  0.50000000  0.46296296  1
  Ti  Ti5958  1  0.35714286  0.57142857  0.46296296  1
  Ti  Ti5959  1  0.35714286  0.64285714  0.46296296  1
  Ti  Ti5960  1  0.35714286  0.71428571  0.46296296  1
  Ti  Ti5961  1  0.35714286  0.78571429  0.46296296  1
  Ti  Ti5962  1  0.35714286  0.85714286  0.46296296  1
  Ti  Ti5963  1  0.35714286  0.92857143  0.46296296  1
  Ti  Ti5964  1  0.42857143  0.00000000  0.46296296  1
  Ti  Ti5965  1  0.42857143  0.07142857  0.46296296  1
  Ti  Ti5966  1  0.42857143  0.14285714  0.46296296  1
  Ti  Ti5967  1  0.42857143  0.21428571  0.46296296  1
  Ti  Ti5968  1  0.42857143  0.28571429  0.46296296  1
  Ti  Ti5969  1  0.42857143  0.35714286  0.46296296  1
  Ti  Ti5970  1  0.42857143  0.42857143  0.46296296  1
  Ti  Ti5971  1  0.42857143  0.50000000  0.46296296  1
  Ti  Ti5972  1  0.42857143  0.57142857  0.46296296  1
  Ti  Ti5973  1  0.42857143  0.64285714  0.46296296  1
  Ti  Ti5974  1  0.42857143  0.71428571  0.46296296  1
  Ti  Ti5975  1  0.42857143  0.78571429  0.46296296  1
  Ti  Ti5976  1  0.42857143  0.85714286  0.46296296  1
  Ti  Ti5977  1  0.42857143  0.92857143  0.46296296  1
  Ti  Ti5978  1  0.50000000  0.00000000  0.46296296  1
  Ti  Ti5979  1  0.50000000  0.07142857  0.46296296  1
  Ti  Ti5980  1  0.50000000  0.14285714  0.46296296  1
  Ti  Ti5981  1  0.50000000  0.21428571  0.46296296  1
  Ti  Ti5982  1  0.50000000  0.28571429  0.46296296  1
  Ti  Ti5983  1  0.50000000  0.35714286  0.46296296  1
  Ti  Ti5984  1  0.50000000  0.42857143  0.46296296  1
  Ti  Ti5985  1  0.50000000  0.50000000  0.46296296  1
  Ti  Ti5986  1  0.50000000  0.57142857  0.46296296  1
  Ti  Ti5987  1  0.50000000  0.64285714  0.46296296  1
  Ti  Ti5988  1  0.50000000  0.71428571  0.46296296  1
  Ti  Ti5989  1  0.50000000  0.78571429  0.46296296  1
  Ti  Ti5990  1  0.50000000  0.85714286  0.46296296  1
  Ti  Ti5991  1  0.50000000  0.92857143  0.46296296  1
  Ti  Ti5992  1  0.57142857  0.00000000  0.46296296  1
  Ti  Ti5993  1  0.57142857  0.07142857  0.46296296  1
  Ti  Ti5994  1  0.57142857  0.14285714  0.46296296  1
  Ti  Ti5995  1  0.57142857  0.21428571  0.46296296  1
  Ti  Ti5996  1  0.57142857  0.28571429  0.46296296  1
  Ti  Ti5997  1  0.57142857  0.35714286  0.46296296  1
  Ti  Ti5998  1  0.57142857  0.42857143  0.46296296  1
  Ti  Ti5999  1  0.57142857  0.50000000  0.46296296  1
  Ti  Ti6000  1  0.57142857  0.57142857  0.46296296  1
  Ti  Ti6001  1  0.57142857  0.64285714  0.46296296  1
  Ti  Ti6002  1  0.57142857  0.71428571  0.46296296  1
  Ti  Ti6003  1  0.57142857  0.78571429  0.46296296  1
  Ti  Ti6004  1  0.57142857  0.85714286  0.46296296  1
  Ti  Ti6005  1  0.57142857  0.92857143  0.46296296  1
  Ti  Ti6006  1  0.64285714  0.00000000  0.46296296  1
  Ti  Ti6007  1  0.64285714  0.07142857  0.46296296  1
  Ti  Ti6008  1  0.64285714  0.14285714  0.46296296  1
  Ti  Ti6009  1  0.64285714  0.21428571  0.46296296  1
  Ti  Ti6010  1  0.64285714  0.28571429  0.46296296  1
  Ti  Ti6011  1  0.64285714  0.35714286  0.46296296  1
  Ti  Ti6012  1  0.64285714  0.42857143  0.46296296  1
  Ti  Ti6013  1  0.64285714  0.50000000  0.46296296  1
  Ti  Ti6014  1  0.64285714  0.57142857  0.46296296  1
  Ti  Ti6015  1  0.64285714  0.64285714  0.46296296  1
  Ti  Ti6016  1  0.64285714  0.71428571  0.46296296  1
  Ti  Ti6017  1  0.64285714  0.78571429  0.46296296  1
  Ti  Ti6018  1  0.64285714  0.85714286  0.46296296  1
  Ti  Ti6019  1  0.64285714  0.92857143  0.46296296  1
  Ti  Ti6020  1  0.71428571  0.00000000  0.46296296  1
  Ti  Ti6021  1  0.71428571  0.07142857  0.46296296  1
  Ti  Ti6022  1  0.71428571  0.14285714  0.46296296  1
  Ti  Ti6023  1  0.71428571  0.21428571  0.46296296  1
  Ti  Ti6024  1  0.71428571  0.28571429  0.46296296  1
  Ti  Ti6025  1  0.71428571  0.35714286  0.46296296  1
  Ti  Ti6026  1  0.71428571  0.42857143  0.46296296  1
  Ti  Ti6027  1  0.71428571  0.50000000  0.46296296  1
  Ti  Ti6028  1  0.71428571  0.57142857  0.46296296  1
  Ti  Ti6029  1  0.71428571  0.64285714  0.46296296  1
  Ti  Ti6030  1  0.71428571  0.71428571  0.46296296  1
  Ti  Ti6031  1  0.71428571  0.78571429  0.46296296  1
  Ti  Ti6032  1  0.71428571  0.85714286  0.46296296  1
  Ti  Ti6033  1  0.71428571  0.92857143  0.46296296  1
  Ti  Ti6034  1  0.78571429  0.00000000  0.46296296  1
  Ti  Ti6035  1  0.78571429  0.07142857  0.46296296  1
  Ti  Ti6036  1  0.78571429  0.14285714  0.46296296  1
  Ti  Ti6037  1  0.78571429  0.21428571  0.46296296  1
  Ti  Ti6038  1  0.78571429  0.28571429  0.46296296  1
  Ti  Ti6039  1  0.78571429  0.35714286  0.46296296  1
  Ti  Ti6040  1  0.78571429  0.42857143  0.46296296  1
  Ti  Ti6041  1  0.78571429  0.50000000  0.46296296  1
  Ti  Ti6042  1  0.78571429  0.57142857  0.46296296  1
  Ti  Ti6043  1  0.78571429  0.64285714  0.46296296  1
  Ti  Ti6044  1  0.78571429  0.71428571  0.46296296  1
  Ti  Ti6045  1  0.78571429  0.78571429  0.46296296  1
  Ti  Ti6046  1  0.78571429  0.85714286  0.46296296  1
  Ti  Ti6047  1  0.78571429  0.92857143  0.46296296  1
  Ti  Ti6048  1  0.85714286  0.00000000  0.46296296  1
  Ti  Ti6049  1  0.85714286  0.07142857  0.46296296  1
  Ti  Ti6050  1  0.85714286  0.14285714  0.46296296  1
  Ti  Ti6051  1  0.85714286  0.21428571  0.46296296  1
  Ti  Ti6052  1  0.85714286  0.28571429  0.46296296  1
  Ti  Ti6053  1  0.85714286  0.35714286  0.46296296  1
  Ti  Ti6054  1  0.85714286  0.42857143  0.46296296  1
  Ti  Ti6055  1  0.85714286  0.50000000  0.46296296  1
  Ti  Ti6056  1  0.85714286  0.57142857  0.46296296  1
  Ti  Ti6057  1  0.85714286  0.64285714  0.46296296  1
  Ti  Ti6058  1  0.85714286  0.71428571  0.46296296  1
  Ti  Ti6059  1  0.85714286  0.78571429  0.46296296  1
  Ti  Ti6060  1  0.85714286  0.85714286  0.46296296  1
  Ti  Ti6061  1  0.85714286  0.92857143  0.46296296  1
  Ti  Ti6062  1  0.92857143  0.00000000  0.46296296  1
  Ti  Ti6063  1  0.92857143  0.07142857  0.46296296  1
  Ti  Ti6064  1  0.92857143  0.14285714  0.46296296  1
  Ti  Ti6065  1  0.92857143  0.21428571  0.46296296  1
  Ti  Ti6066  1  0.92857143  0.28571429  0.46296296  1
  Ti  Ti6067  1  0.92857143  0.35714286  0.46296296  1
  Ti  Ti6068  1  0.92857143  0.42857143  0.46296296  1
  Ti  Ti6069  1  0.92857143  0.50000000  0.46296296  1
  Ti  Ti6070  1  0.92857143  0.57142857  0.46296296  1
  Ti  Ti6071  1  0.92857143  0.64285714  0.46296296  1
  Ti  Ti6072  1  0.92857143  0.71428571  0.46296296  1
  Ti  Ti6073  1  0.92857143  0.78571429  0.46296296  1
  Ti  Ti6074  1  0.92857143  0.85714286  0.46296296  1
  Ti  Ti6075  1  0.92857143  0.92857143  0.46296296  1
  Ti  Ti6076  1  0.02380950  0.04761907  0.45185185  1
  Ti  Ti6077  1  0.02380950  0.11904764  0.45185185  1
  Ti  Ti6078  1  0.02380950  0.19047621  0.45185185  1
  Ti  Ti6079  1  0.02380950  0.26190479  0.45185185  1
  Ti  Ti6080  1  0.02380950  0.33333336  0.45185185  1
  Ti  Ti6081  1  0.02380950  0.40476193  0.45185185  1
  Ti  Ti6082  1  0.02380950  0.47619050  0.45185185  1
  Ti  Ti6083  1  0.02380950  0.54761907  0.45185185  1
  Ti  Ti6084  1  0.02380950  0.61904764  0.45185185  1
  Ti  Ti6085  1  0.02380950  0.69047621  0.45185185  1
  Ti  Ti6086  1  0.02380950  0.76190479  0.45185185  1
  Ti  Ti6087  1  0.02380950  0.83333336  0.45185185  1
  Ti  Ti6088  1  0.02380950  0.90476193  0.45185185  1
  Ti  Ti6089  1  0.02380950  0.97619050  0.45185185  1
  Ti  Ti6090  1  0.09523807  0.04761907  0.45185185  1
  Ti  Ti6091  1  0.09523807  0.11904764  0.45185185  1
  Ti  Ti6092  1  0.09523807  0.19047621  0.45185185  1
  Ti  Ti6093  1  0.09523807  0.26190479  0.45185185  1
  Ti  Ti6094  1  0.09523807  0.33333336  0.45185185  1
  Ti  Ti6095  1  0.09523807  0.40476193  0.45185185  1
  Ti  Ti6096  1  0.09523807  0.47619050  0.45185185  1
  Ti  Ti6097  1  0.09523807  0.54761907  0.45185185  1
  Ti  Ti6098  1  0.09523807  0.61904764  0.45185185  1
  Ti  Ti6099  1  0.09523807  0.69047621  0.45185185  1
  Ti  Ti6100  1  0.09523807  0.76190479  0.45185185  1
  Ti  Ti6101  1  0.09523807  0.83333336  0.45185185  1
  Ti  Ti6102  1  0.09523807  0.90476193  0.45185185  1
  Ti  Ti6103  1  0.09523807  0.97619050  0.45185185  1
  Ti  Ti6104  1  0.16666664  0.04761907  0.45185185  1
  Ti  Ti6105  1  0.16666664  0.11904764  0.45185185  1
  Ti  Ti6106  1  0.16666664  0.19047621  0.45185185  1
  Ti  Ti6107  1  0.16666664  0.26190479  0.45185185  1
  Ti  Ti6108  1  0.16666664  0.33333336  0.45185185  1
  Ti  Ti6109  1  0.16666664  0.40476193  0.45185185  1
  Ti  Ti6110  1  0.16666664  0.47619050  0.45185185  1
  Ti  Ti6111  1  0.16666664  0.54761907  0.45185185  1
  Ti  Ti6112  1  0.16666664  0.61904764  0.45185185  1
  Ti  Ti6113  1  0.16666664  0.69047621  0.45185185  1
  Ti  Ti6114  1  0.16666664  0.76190479  0.45185185  1
  Ti  Ti6115  1  0.16666664  0.83333336  0.45185185  1
  Ti  Ti6116  1  0.16666664  0.90476193  0.45185185  1
  Ti  Ti6117  1  0.16666664  0.97619050  0.45185185  1
  Ti  Ti6118  1  0.23809521  0.04761907  0.45185185  1
  Ti  Ti6119  1  0.23809521  0.11904764  0.45185185  1
  Ti  Ti6120  1  0.23809521  0.19047621  0.45185185  1
  Ti  Ti6121  1  0.23809521  0.26190479  0.45185185  1
  Ti  Ti6122  1  0.23809521  0.33333336  0.45185185  1
  Ti  Ti6123  1  0.23809521  0.40476193  0.45185185  1
  Ti  Ti6124  1  0.23809521  0.47619050  0.45185185  1
  Ti  Ti6125  1  0.23809521  0.54761907  0.45185185  1
  Ti  Ti6126  1  0.23809521  0.61904764  0.45185185  1
  Ti  Ti6127  1  0.23809521  0.69047621  0.45185185  1
  Ti  Ti6128  1  0.23809521  0.76190479  0.45185185  1
  Ti  Ti6129  1  0.23809521  0.83333336  0.45185185  1
  Ti  Ti6130  1  0.23809521  0.90476193  0.45185185  1
  Ti  Ti6131  1  0.23809521  0.97619050  0.45185185  1
  Ti  Ti6132  1  0.30952379  0.04761907  0.45185185  1
  Ti  Ti6133  1  0.30952379  0.11904764  0.45185185  1
  Ti  Ti6134  1  0.30952379  0.19047621  0.45185185  1
  Ti  Ti6135  1  0.30952379  0.26190479  0.45185185  1
  Ti  Ti6136  1  0.30952379  0.33333336  0.45185185  1
  Ti  Ti6137  1  0.30952379  0.40476193  0.45185185  1
  Ti  Ti6138  1  0.30952379  0.47619050  0.45185185  1
  Ti  Ti6139  1  0.30952379  0.54761907  0.45185185  1
  Ti  Ti6140  1  0.30952379  0.61904764  0.45185185  1
  Ti  Ti6141  1  0.30952379  0.69047621  0.45185185  1
  Ti  Ti6142  1  0.30952379  0.76190479  0.45185185  1
  Ti  Ti6143  1  0.30952379  0.83333336  0.45185185  1
  Ti  Ti6144  1  0.30952379  0.90476193  0.45185185  1
  Ti  Ti6145  1  0.30952379  0.97619050  0.45185185  1
  Ti  Ti6146  1  0.38095236  0.04761907  0.45185185  1
  Ti  Ti6147  1  0.38095236  0.11904764  0.45185185  1
  Ti  Ti6148  1  0.38095236  0.19047621  0.45185185  1
  Ti  Ti6149  1  0.38095236  0.26190479  0.45185185  1
  Ti  Ti6150  1  0.38095236  0.33333336  0.45185185  1
  Ti  Ti6151  1  0.38095236  0.40476193  0.45185185  1
  Ti  Ti6152  1  0.38095236  0.47619050  0.45185185  1
  Ti  Ti6153  1  0.38095236  0.54761907  0.45185185  1
  Ti  Ti6154  1  0.38095236  0.61904764  0.45185185  1
  Ti  Ti6155  1  0.38095236  0.69047621  0.45185185  1
  Ti  Ti6156  1  0.38095236  0.76190479  0.45185185  1
  Ti  Ti6157  1  0.38095236  0.83333336  0.45185185  1
  Ti  Ti6158  1  0.38095236  0.90476193  0.45185185  1
  Ti  Ti6159  1  0.38095236  0.97619050  0.45185185  1
  Ti  Ti6160  1  0.45238093  0.04761907  0.45185185  1
  Ti  Ti6161  1  0.45238093  0.11904764  0.45185185  1
  Ti  Ti6162  1  0.45238093  0.19047621  0.45185185  1
  Ti  Ti6163  1  0.45238093  0.26190479  0.45185185  1
  Ti  Ti6164  1  0.45238093  0.33333336  0.45185185  1
  Ti  Ti6165  1  0.45238093  0.40476193  0.45185185  1
  Ti  Ti6166  1  0.45238093  0.47619050  0.45185185  1
  Ti  Ti6167  1  0.45238093  0.54761907  0.45185185  1
  Ti  Ti6168  1  0.45238093  0.61904764  0.45185185  1
  Ti  Ti6169  1  0.45238093  0.69047621  0.45185185  1
  Ti  Ti6170  1  0.45238093  0.76190479  0.45185185  1
  Ti  Ti6171  1  0.45238093  0.83333336  0.45185185  1
  Ti  Ti6172  1  0.45238093  0.90476193  0.45185185  1
  Ti  Ti6173  1  0.45238093  0.97619050  0.45185185  1
  Ti  Ti6174  1  0.52380950  0.04761907  0.45185185  1
  Ti  Ti6175  1  0.52380950  0.11904764  0.45185185  1
  Ti  Ti6176  1  0.52380950  0.19047621  0.45185185  1
  Ti  Ti6177  1  0.52380950  0.26190479  0.45185185  1
  Ti  Ti6178  1  0.52380950  0.33333336  0.45185185  1
  Ti  Ti6179  1  0.52380950  0.40476193  0.45185185  1
  Ti  Ti6180  1  0.52380950  0.47619050  0.45185185  1
  Ti  Ti6181  1  0.52380950  0.54761907  0.45185185  1
  Ti  Ti6182  1  0.52380950  0.61904764  0.45185185  1
  Ti  Ti6183  1  0.52380950  0.69047621  0.45185185  1
  Ti  Ti6184  1  0.52380950  0.76190479  0.45185185  1
  Ti  Ti6185  1  0.52380950  0.83333336  0.45185185  1
  Ti  Ti6186  1  0.52380950  0.90476193  0.45185185  1
  Ti  Ti6187  1  0.52380950  0.97619050  0.45185185  1
  Ti  Ti6188  1  0.59523807  0.04761907  0.45185185  1
  Ti  Ti6189  1  0.59523807  0.11904764  0.45185185  1
  Ti  Ti6190  1  0.59523807  0.19047621  0.45185185  1
  Ti  Ti6191  1  0.59523807  0.26190479  0.45185185  1
  Ti  Ti6192  1  0.59523807  0.33333336  0.45185185  1
  Ti  Ti6193  1  0.59523807  0.40476193  0.45185185  1
  Ti  Ti6194  1  0.59523807  0.47619050  0.45185185  1
  Ti  Ti6195  1  0.59523807  0.54761907  0.45185185  1
  Ti  Ti6196  1  0.59523807  0.61904764  0.45185185  1
  Ti  Ti6197  1  0.59523807  0.69047621  0.45185185  1
  Ti  Ti6198  1  0.59523807  0.76190479  0.45185185  1
  Ti  Ti6199  1  0.59523807  0.83333336  0.45185185  1
  Ti  Ti6200  1  0.59523807  0.90476193  0.45185185  1
  Ti  Ti6201  1  0.59523807  0.97619050  0.45185185  1
  Ti  Ti6202  1  0.66666664  0.04761907  0.45185185  1
  Ti  Ti6203  1  0.66666664  0.11904764  0.45185185  1
  Ti  Ti6204  1  0.66666664  0.19047621  0.45185185  1
  Ti  Ti6205  1  0.66666664  0.26190479  0.45185185  1
  Ti  Ti6206  1  0.66666664  0.33333336  0.45185185  1
  Ti  Ti6207  1  0.66666664  0.40476193  0.45185185  1
  Ti  Ti6208  1  0.66666664  0.47619050  0.45185185  1
  Ti  Ti6209  1  0.66666664  0.54761907  0.45185185  1
  Ti  Ti6210  1  0.66666664  0.61904764  0.45185185  1
  Ti  Ti6211  1  0.66666664  0.69047621  0.45185185  1
  Ti  Ti6212  1  0.66666664  0.76190479  0.45185185  1
  Ti  Ti6213  1  0.66666664  0.83333336  0.45185185  1
  Ti  Ti6214  1  0.66666664  0.90476193  0.45185185  1
  Ti  Ti6215  1  0.66666664  0.97619050  0.45185185  1
  Ti  Ti6216  1  0.73809521  0.04761907  0.45185185  1
  Ti  Ti6217  1  0.73809521  0.11904764  0.45185185  1
  Ti  Ti6218  1  0.73809521  0.19047621  0.45185185  1
  Ti  Ti6219  1  0.73809521  0.26190479  0.45185185  1
  Ti  Ti6220  1  0.73809521  0.33333336  0.45185185  1
  Ti  Ti6221  1  0.73809521  0.40476193  0.45185185  1
  Ti  Ti6222  1  0.73809521  0.47619050  0.45185185  1
  Ti  Ti6223  1  0.73809521  0.54761907  0.45185185  1
  Ti  Ti6224  1  0.73809521  0.61904764  0.45185185  1
  Ti  Ti6225  1  0.73809521  0.69047621  0.45185185  1
  Ti  Ti6226  1  0.73809521  0.76190479  0.45185185  1
  Ti  Ti6227  1  0.73809521  0.83333336  0.45185185  1
  Ti  Ti6228  1  0.73809521  0.90476193  0.45185185  1
  Ti  Ti6229  1  0.73809521  0.97619050  0.45185185  1
  Ti  Ti6230  1  0.80952379  0.04761907  0.45185185  1
  Ti  Ti6231  1  0.80952379  0.11904764  0.45185185  1
  Ti  Ti6232  1  0.80952379  0.19047621  0.45185185  1
  Ti  Ti6233  1  0.80952379  0.26190479  0.45185185  1
  Ti  Ti6234  1  0.80952379  0.33333336  0.45185185  1
  Ti  Ti6235  1  0.80952379  0.40476193  0.45185185  1
  Ti  Ti6236  1  0.80952379  0.47619050  0.45185185  1
  Ti  Ti6237  1  0.80952379  0.54761907  0.45185185  1
  Ti  Ti6238  1  0.80952379  0.61904764  0.45185185  1
  Ti  Ti6239  1  0.80952379  0.69047621  0.45185185  1
  Ti  Ti6240  1  0.80952379  0.76190479  0.45185185  1
  Ti  Ti6241  1  0.80952379  0.83333336  0.45185185  1
  Ti  Ti6242  1  0.80952379  0.90476193  0.45185185  1
  Ti  Ti6243  1  0.80952379  0.97619050  0.45185185  1
  Ti  Ti6244  1  0.88095236  0.04761907  0.45185185  1
  Ti  Ti6245  1  0.88095236  0.11904764  0.45185185  1
  Ti  Ti6246  1  0.88095236  0.19047621  0.45185185  1
  Ti  Ti6247  1  0.88095236  0.26190479  0.45185185  1
  Ti  Ti6248  1  0.88095236  0.33333336  0.45185185  1
  Ti  Ti6249  1  0.88095236  0.40476193  0.45185185  1
  Ti  Ti6250  1  0.88095236  0.47619050  0.45185185  1
  Ti  Ti6251  1  0.88095236  0.54761907  0.45185185  1
  Ti  Ti6252  1  0.88095236  0.61904764  0.45185185  1
  Ti  Ti6253  1  0.88095236  0.69047621  0.45185185  1
  Ti  Ti6254  1  0.88095236  0.76190479  0.45185185  1
  Ti  Ti6255  1  0.88095236  0.83333336  0.45185185  1
  Ti  Ti6256  1  0.88095236  0.90476193  0.45185185  1
  Ti  Ti6257  1  0.88095236  0.97619050  0.45185185  1
  Ti  Ti6258  1  0.95238093  0.04761907  0.45185185  1
  Ti  Ti6259  1  0.95238093  0.11904764  0.45185185  1
  Ti  Ti6260  1  0.95238093  0.19047621  0.45185185  1
  Ti  Ti6261  1  0.95238093  0.26190479  0.45185185  1
  Ti  Ti6262  1  0.95238093  0.33333336  0.45185185  1
  Ti  Ti6263  1  0.95238093  0.40476193  0.45185185  1
  Ti  Ti6264  1  0.95238093  0.47619050  0.45185185  1
  Ti  Ti6265  1  0.95238093  0.54761907  0.45185185  1
  Ti  Ti6266  1  0.95238093  0.61904764  0.45185185  1
  Ti  Ti6267  1  0.95238093  0.69047621  0.45185185  1
  Ti  Ti6268  1  0.95238093  0.76190479  0.45185185  1
  Ti  Ti6269  1  0.95238093  0.83333336  0.45185185  1
  Ti  Ti6270  1  0.95238093  0.90476193  0.45185185  1
  Ti  Ti6271  1  0.95238093  0.97619050  0.45185185  1
  Ti  Ti6272  1  0.04761907  0.02380950  0.45185185  1
  Ti  Ti6273  1  0.04761907  0.09523807  0.45185185  1
  Ti  Ti6274  1  0.04761907  0.16666664  0.45185185  1
  Ti  Ti6275  1  0.04761907  0.23809521  0.45185185  1
  Ti  Ti6276  1  0.04761907  0.30952379  0.45185185  1
  Ti  Ti6277  1  0.04761907  0.38095236  0.45185185  1
  Ti  Ti6278  1  0.04761907  0.45238093  0.45185185  1
  Ti  Ti6279  1  0.04761907  0.52380950  0.45185185  1
  Ti  Ti6280  1  0.04761907  0.59523807  0.45185185  1
  Ti  Ti6281  1  0.04761907  0.66666664  0.45185185  1
  Ti  Ti6282  1  0.04761907  0.73809521  0.45185185  1
  Ti  Ti6283  1  0.04761907  0.80952379  0.45185185  1
  Ti  Ti6284  1  0.04761907  0.88095236  0.45185185  1
  Ti  Ti6285  1  0.04761907  0.95238093  0.45185185  1
  Ti  Ti6286  1  0.11904764  0.02380950  0.45185185  1
  Ti  Ti6287  1  0.11904764  0.09523807  0.45185185  1
  Ti  Ti6288  1  0.11904764  0.16666664  0.45185185  1
  Ti  Ti6289  1  0.11904764  0.23809521  0.45185185  1
  Ti  Ti6290  1  0.11904764  0.30952379  0.45185185  1
  Ti  Ti6291  1  0.11904764  0.38095236  0.45185185  1
  Ti  Ti6292  1  0.11904764  0.45238093  0.45185185  1
  Ti  Ti6293  1  0.11904764  0.52380950  0.45185185  1
  Ti  Ti6294  1  0.11904764  0.59523807  0.45185185  1
  Ti  Ti6295  1  0.11904764  0.66666664  0.45185185  1
  Ti  Ti6296  1  0.11904764  0.73809521  0.45185185  1
  Ti  Ti6297  1  0.11904764  0.80952379  0.45185185  1
  Ti  Ti6298  1  0.11904764  0.88095236  0.45185185  1
  Ti  Ti6299  1  0.11904764  0.95238093  0.45185185  1
  Ti  Ti6300  1  0.19047621  0.02380950  0.45185185  1
  Ti  Ti6301  1  0.19047621  0.09523807  0.45185185  1
  Ti  Ti6302  1  0.19047621  0.16666664  0.45185185  1
  Ti  Ti6303  1  0.19047621  0.23809521  0.45185185  1
  Ti  Ti6304  1  0.19047621  0.30952379  0.45185185  1
  Ti  Ti6305  1  0.19047621  0.38095236  0.45185185  1
  Ti  Ti6306  1  0.19047621  0.45238093  0.45185185  1
  Ti  Ti6307  1  0.19047621  0.52380950  0.45185185  1
  Ti  Ti6308  1  0.19047621  0.59523807  0.45185185  1
  Ti  Ti6309  1  0.19047621  0.66666664  0.45185185  1
  Ti  Ti6310  1  0.19047621  0.73809521  0.45185185  1
  Ti  Ti6311  1  0.19047621  0.80952379  0.45185185  1
  Ti  Ti6312  1  0.19047621  0.88095236  0.45185185  1
  Ti  Ti6313  1  0.19047621  0.95238093  0.45185185  1
  Ti  Ti6314  1  0.26190479  0.02380950  0.45185185  1
  Ti  Ti6315  1  0.26190479  0.09523807  0.45185185  1
  Ti  Ti6316  1  0.26190479  0.16666664  0.45185185  1
  Ti  Ti6317  1  0.26190479  0.23809521  0.45185185  1
  Ti  Ti6318  1  0.26190479  0.30952379  0.45185185  1
  Ti  Ti6319  1  0.26190479  0.38095236  0.45185185  1
  Ti  Ti6320  1  0.26190479  0.45238093  0.45185185  1
  Ti  Ti6321  1  0.26190479  0.52380950  0.45185185  1
  Ti  Ti6322  1  0.26190479  0.59523807  0.45185185  1
  Ti  Ti6323  1  0.26190479  0.66666664  0.45185185  1
  Ti  Ti6324  1  0.26190479  0.73809521  0.45185185  1
  Ti  Ti6325  1  0.26190479  0.80952379  0.45185185  1
  Ti  Ti6326  1  0.26190479  0.88095236  0.45185185  1
  Ti  Ti6327  1  0.26190479  0.95238093  0.45185185  1
  Ti  Ti6328  1  0.33333336  0.02380950  0.45185185  1
  Ti  Ti6329  1  0.33333336  0.09523807  0.45185185  1
  Ti  Ti6330  1  0.33333336  0.16666664  0.45185185  1
  Ti  Ti6331  1  0.33333336  0.23809521  0.45185185  1
  Ti  Ti6332  1  0.33333336  0.30952379  0.45185185  1
  Ti  Ti6333  1  0.33333336  0.38095236  0.45185185  1
  Ti  Ti6334  1  0.33333336  0.45238093  0.45185185  1
  Ti  Ti6335  1  0.33333336  0.52380950  0.45185185  1
  Ti  Ti6336  1  0.33333336  0.59523807  0.45185185  1
  Ti  Ti6337  1  0.33333336  0.66666664  0.45185185  1
  Ti  Ti6338  1  0.33333336  0.73809521  0.45185185  1
  Ti  Ti6339  1  0.33333336  0.80952379  0.45185185  1
  Ti  Ti6340  1  0.33333336  0.88095236  0.45185185  1
  Ti  Ti6341  1  0.33333336  0.95238093  0.45185185  1
  Ti  Ti6342  1  0.40476193  0.02380950  0.45185185  1
  Ti  Ti6343  1  0.40476193  0.09523807  0.45185185  1
  Ti  Ti6344  1  0.40476193  0.16666664  0.45185185  1
  Ti  Ti6345  1  0.40476193  0.23809521  0.45185185  1
  Ti  Ti6346  1  0.40476193  0.30952379  0.45185185  1
  Ti  Ti6347  1  0.40476193  0.38095236  0.45185185  1
  Ti  Ti6348  1  0.40476193  0.45238093  0.45185185  1
  Ti  Ti6349  1  0.40476193  0.52380950  0.45185185  1
  Ti  Ti6350  1  0.40476193  0.59523807  0.45185185  1
  Ti  Ti6351  1  0.40476193  0.66666664  0.45185185  1
  Ti  Ti6352  1  0.40476193  0.73809521  0.45185185  1
  Ti  Ti6353  1  0.40476193  0.80952379  0.45185185  1
  Ti  Ti6354  1  0.40476193  0.88095236  0.45185185  1
  Ti  Ti6355  1  0.40476193  0.95238093  0.45185185  1
  Ti  Ti6356  1  0.47619050  0.02380950  0.45185185  1
  Ti  Ti6357  1  0.47619050  0.09523807  0.45185185  1
  Ti  Ti6358  1  0.47619050  0.16666664  0.45185185  1
  Ti  Ti6359  1  0.47619050  0.23809521  0.45185185  1
  Ti  Ti6360  1  0.47619050  0.30952379  0.45185185  1
  Ti  Ti6361  1  0.47619050  0.38095236  0.45185185  1
  Ti  Ti6362  1  0.47619050  0.45238093  0.45185185  1
  Ti  Ti6363  1  0.47619050  0.52380950  0.45185185  1
  Ti  Ti6364  1  0.47619050  0.59523807  0.45185185  1
  Ti  Ti6365  1  0.47619050  0.66666664  0.45185185  1
  Ti  Ti6366  1  0.47619050  0.73809521  0.45185185  1
  Ti  Ti6367  1  0.47619050  0.80952379  0.45185185  1
  Ti  Ti6368  1  0.47619050  0.88095236  0.45185185  1
  Ti  Ti6369  1  0.47619050  0.95238093  0.45185185  1
  Ti  Ti6370  1  0.54761907  0.02380950  0.45185185  1
  Ti  Ti6371  1  0.54761907  0.09523807  0.45185185  1
  Ti  Ti6372  1  0.54761907  0.16666664  0.45185185  1
  Ti  Ti6373  1  0.54761907  0.23809521  0.45185185  1
  Ti  Ti6374  1  0.54761907  0.30952379  0.45185185  1
  Ti  Ti6375  1  0.54761907  0.38095236  0.45185185  1
  Ti  Ti6376  1  0.54761907  0.45238093  0.45185185  1
  Ti  Ti6377  1  0.54761907  0.52380950  0.45185185  1
  Ti  Ti6378  1  0.54761907  0.59523807  0.45185185  1
  Ti  Ti6379  1  0.54761907  0.66666664  0.45185185  1
  Ti  Ti6380  1  0.54761907  0.73809521  0.45185185  1
  Ti  Ti6381  1  0.54761907  0.80952379  0.45185185  1
  Ti  Ti6382  1  0.54761907  0.88095236  0.45185185  1
  Ti  Ti6383  1  0.54761907  0.95238093  0.45185185  1
  Ti  Ti6384  1  0.61904764  0.02380950  0.45185185  1
  Ti  Ti6385  1  0.61904764  0.09523807  0.45185185  1
  Ti  Ti6386  1  0.61904764  0.16666664  0.45185185  1
  Ti  Ti6387  1  0.61904764  0.23809521  0.45185185  1
  Ti  Ti6388  1  0.61904764  0.30952379  0.45185185  1
  Ti  Ti6389  1  0.61904764  0.38095236  0.45185185  1
  Ti  Ti6390  1  0.61904764  0.45238093  0.45185185  1
  Ti  Ti6391  1  0.61904764  0.52380950  0.45185185  1
  Ti  Ti6392  1  0.61904764  0.59523807  0.45185185  1
  Ti  Ti6393  1  0.61904764  0.66666664  0.45185185  1
  Ti  Ti6394  1  0.61904764  0.73809521  0.45185185  1
  Ti  Ti6395  1  0.61904764  0.80952379  0.45185185  1
  Ti  Ti6396  1  0.61904764  0.88095236  0.45185185  1
  Ti  Ti6397  1  0.61904764  0.95238093  0.45185185  1
  Ti  Ti6398  1  0.69047621  0.02380950  0.45185185  1
  Ti  Ti6399  1  0.69047621  0.09523807  0.45185185  1
  Ti  Ti6400  1  0.69047621  0.16666664  0.45185185  1
  Ti  Ti6401  1  0.69047621  0.23809521  0.45185185  1
  Ti  Ti6402  1  0.69047621  0.30952379  0.45185185  1
  Ti  Ti6403  1  0.69047621  0.38095236  0.45185185  1
  Ti  Ti6404  1  0.69047621  0.45238093  0.45185185  1
  Ti  Ti6405  1  0.69047621  0.52380950  0.45185185  1
  Ti  Ti6406  1  0.69047621  0.59523807  0.45185185  1
  Ti  Ti6407  1  0.69047621  0.66666664  0.45185185  1
  Ti  Ti6408  1  0.69047621  0.73809521  0.45185185  1
  Ti  Ti6409  1  0.69047621  0.80952379  0.45185185  1
  Ti  Ti6410  1  0.69047621  0.88095236  0.45185185  1
  Ti  Ti6411  1  0.69047621  0.95238093  0.45185185  1
  Ti  Ti6412  1  0.76190479  0.02380950  0.45185185  1
  Ti  Ti6413  1  0.76190479  0.09523807  0.45185185  1
  Ti  Ti6414  1  0.76190479  0.16666664  0.45185185  1
  Ti  Ti6415  1  0.76190479  0.23809521  0.45185185  1
  Ti  Ti6416  1  0.76190479  0.30952379  0.45185185  1
  Ti  Ti6417  1  0.76190479  0.38095236  0.45185185  1
  Ti  Ti6418  1  0.76190479  0.45238093  0.45185185  1
  Ti  Ti6419  1  0.76190479  0.52380950  0.45185185  1
  Ti  Ti6420  1  0.76190479  0.59523807  0.45185185  1
  Ti  Ti6421  1  0.76190479  0.66666664  0.45185185  1
  Ti  Ti6422  1  0.76190479  0.73809521  0.45185185  1
  Ti  Ti6423  1  0.76190479  0.80952379  0.45185185  1
  Ti  Ti6424  1  0.76190479  0.88095236  0.45185185  1
  Ti  Ti6425  1  0.76190479  0.95238093  0.45185185  1
  Ti  Ti6426  1  0.83333336  0.02380950  0.45185185  1
  Ti  Ti6427  1  0.83333336  0.09523807  0.45185185  1
  Ti  Ti6428  1  0.83333336  0.16666664  0.45185185  1
  Ti  Ti6429  1  0.83333336  0.23809521  0.45185185  1
  Ti  Ti6430  1  0.83333336  0.30952379  0.45185185  1
  Ti  Ti6431  1  0.83333336  0.38095236  0.45185185  1
  Ti  Ti6432  1  0.83333336  0.45238093  0.45185185  1
  Ti  Ti6433  1  0.83333336  0.52380950  0.45185185  1
  Ti  Ti6434  1  0.83333336  0.59523807  0.45185185  1
  Ti  Ti6435  1  0.83333336  0.66666664  0.45185185  1
  Ti  Ti6436  1  0.83333336  0.73809521  0.45185185  1
  Ti  Ti6437  1  0.83333336  0.80952379  0.45185185  1
  Ti  Ti6438  1  0.83333336  0.88095236  0.45185185  1
  Ti  Ti6439  1  0.83333336  0.95238093  0.45185185  1
  Ti  Ti6440  1  0.90476193  0.02380950  0.45185185  1
  Ti  Ti6441  1  0.90476193  0.09523807  0.45185185  1
  Ti  Ti6442  1  0.90476193  0.16666664  0.45185185  1
  Ti  Ti6443  1  0.90476193  0.23809521  0.45185185  1
  Ti  Ti6444  1  0.90476193  0.30952379  0.45185185  1
  Ti  Ti6445  1  0.90476193  0.38095236  0.45185185  1
  Ti  Ti6446  1  0.90476193  0.45238093  0.45185185  1
  Ti  Ti6447  1  0.90476193  0.52380950  0.45185185  1
  Ti  Ti6448  1  0.90476193  0.59523807  0.45185185  1
  Ti  Ti6449  1  0.90476193  0.66666664  0.45185185  1
  Ti  Ti6450  1  0.90476193  0.73809521  0.45185185  1
  Ti  Ti6451  1  0.90476193  0.80952379  0.45185185  1
  Ti  Ti6452  1  0.90476193  0.88095236  0.45185185  1
  Ti  Ti6453  1  0.90476193  0.95238093  0.45185185  1
  Ti  Ti6454  1  0.97619050  0.02380950  0.45185185  1
  Ti  Ti6455  1  0.97619050  0.09523807  0.45185185  1
  Ti  Ti6456  1  0.97619050  0.16666664  0.45185185  1
  Ti  Ti6457  1  0.97619050  0.23809521  0.45185185  1
  Ti  Ti6458  1  0.97619050  0.30952379  0.45185185  1
  Ti  Ti6459  1  0.97619050  0.38095236  0.45185185  1
  Ti  Ti6460  1  0.97619050  0.45238093  0.45185185  1
  Ti  Ti6461  1  0.97619050  0.52380950  0.45185185  1
  Ti  Ti6462  1  0.97619050  0.59523807  0.45185185  1
  Ti  Ti6463  1  0.97619050  0.66666664  0.45185185  1
  Ti  Ti6464  1  0.97619050  0.73809521  0.45185185  1
  Ti  Ti6465  1  0.97619050  0.80952379  0.45185185  1
  Ti  Ti6466  1  0.97619050  0.88095236  0.45185185  1
  Ti  Ti6467  1  0.97619050  0.95238093  0.45185185  1
  Ti  Ti6468  1  0.00000000  0.00000000  0.48518519  1
  Ti  Ti6469  1  0.00000000  0.07142857  0.48518519  1
  Ti  Ti6470  1  0.00000000  0.14285714  0.48518519  1
  Ti  Ti6471  1  0.00000000  0.21428571  0.48518519  1
  Ti  Ti6472  1  0.00000000  0.28571429  0.48518519  1
  Ti  Ti6473  1  0.00000000  0.35714286  0.48518519  1
  Ti  Ti6474  1  0.00000000  0.42857143  0.48518519  1
  Ti  Ti6475  1  0.00000000  0.50000000  0.48518519  1
  Ti  Ti6476  1  0.00000000  0.57142857  0.48518519  1
  Ti  Ti6477  1  0.00000000  0.64285714  0.48518519  1
  Ti  Ti6478  1  0.00000000  0.71428571  0.48518519  1
  Ti  Ti6479  1  1.00000000  0.78571429  0.48518519  1
  Ti  Ti6480  1  0.00000000  0.85714286  0.48518519  1
  Ti  Ti6481  1  0.00000000  0.92857143  0.48518519  1
  Ti  Ti6482  1  0.07142857  0.00000000  0.48518519  1
  Ti  Ti6483  1  0.07142857  0.07142857  0.48518519  1
  Ti  Ti6484  1  0.07142857  0.14285714  0.48518519  1
  Ti  Ti6485  1  0.07142857  0.21428571  0.48518519  1
  Ti  Ti6486  1  0.07142857  0.28571429  0.48518519  1
  Ti  Ti6487  1  0.07142857  0.35714286  0.48518519  1
  Ti  Ti6488  1  0.07142857  0.42857143  0.48518519  1
  Ti  Ti6489  1  0.07142857  0.50000000  0.48518519  1
  Ti  Ti6490  1  0.07142857  0.57142857  0.48518519  1
  Ti  Ti6491  1  0.07142857  0.64285714  0.48518519  1
  Ti  Ti6492  1  0.07142857  0.71428571  0.48518519  1
  Ti  Ti6493  1  0.07142857  0.78571429  0.48518519  1
  Ti  Ti6494  1  0.07142857  0.85714286  0.48518519  1
  Ti  Ti6495  1  0.07142857  0.92857143  0.48518519  1
  Ti  Ti6496  1  0.14285714  0.00000000  0.48518519  1
  Ti  Ti6497  1  0.14285714  0.07142857  0.48518519  1
  Ti  Ti6498  1  0.14285714  0.14285714  0.48518519  1
  Ti  Ti6499  1  0.14285714  0.21428571  0.48518519  1
  Ti  Ti6500  1  0.14285714  0.28571429  0.48518519  1
  Ti  Ti6501  1  0.14285714  0.35714286  0.48518519  1
  Ti  Ti6502  1  0.14285714  0.42857143  0.48518519  1
  Ti  Ti6503  1  0.14285714  0.50000000  0.48518519  1
  Ti  Ti6504  1  0.14285714  0.57142857  0.48518519  1
  Ti  Ti6505  1  0.14285714  0.64285714  0.48518519  1
  Ti  Ti6506  1  0.14285714  0.71428571  0.48518519  1
  Ti  Ti6507  1  0.14285714  0.78571429  0.48518519  1
  Ti  Ti6508  1  0.14285714  0.85714286  0.48518519  1
  Ti  Ti6509  1  0.14285714  0.92857143  0.48518519  1
  Ti  Ti6510  1  0.21428571  0.00000000  0.48518519  1
  Ti  Ti6511  1  0.21428571  0.07142857  0.48518519  1
  Ti  Ti6512  1  0.21428571  0.14285714  0.48518519  1
  Ti  Ti6513  1  0.21428571  0.21428571  0.48518519  1
  Ti  Ti6514  1  0.21428571  0.28571429  0.48518519  1
  Ti  Ti6515  1  0.21428571  0.35714286  0.48518519  1
  Ti  Ti6516  1  0.21428571  0.42857143  0.48518519  1
  Ti  Ti6517  1  0.21428571  0.50000000  0.48518519  1
  Ti  Ti6518  1  0.21428571  0.57142857  0.48518519  1
  Ti  Ti6519  1  0.21428571  0.64285714  0.48518519  1
  Ti  Ti6520  1  0.21428571  0.71428571  0.48518519  1
  Ti  Ti6521  1  0.21428571  0.78571429  0.48518519  1
  Ti  Ti6522  1  0.21428571  0.85714286  0.48518519  1
  Ti  Ti6523  1  0.21428571  0.92857143  0.48518519  1
  Ti  Ti6524  1  0.28571429  0.00000000  0.48518519  1
  Ti  Ti6525  1  0.28571429  0.07142857  0.48518519  1
  Ti  Ti6526  1  0.28571429  0.14285714  0.48518519  1
  Ti  Ti6527  1  0.28571429  0.21428571  0.48518519  1
  Ti  Ti6528  1  0.28571429  0.28571429  0.48518519  1
  Ti  Ti6529  1  0.28571429  0.35714286  0.48518519  1
  Ti  Ti6530  1  0.28571429  0.42857143  0.48518519  1
  Ti  Ti6531  1  0.28571429  0.50000000  0.48518519  1
  Ti  Ti6532  1  0.28571429  0.57142857  0.48518519  1
  Ti  Ti6533  1  0.28571429  0.64285714  0.48518519  1
  Ti  Ti6534  1  0.28571429  0.71428571  0.48518519  1
  Ti  Ti6535  1  0.28571429  0.78571429  0.48518519  1
  Ti  Ti6536  1  0.28571429  0.85714286  0.48518519  1
  Ti  Ti6537  1  0.28571429  0.92857143  0.48518519  1
  Ti  Ti6538  1  0.35714286  0.00000000  0.48518519  1
  Ti  Ti6539  1  0.35714286  0.07142857  0.48518519  1
  Ti  Ti6540  1  0.35714286  0.14285714  0.48518519  1
  Ti  Ti6541  1  0.35714286  0.21428571  0.48518519  1
  Ti  Ti6542  1  0.35714286  0.28571429  0.48518519  1
  Ti  Ti6543  1  0.35714286  0.35714286  0.48518519  1
  Ti  Ti6544  1  0.35714286  0.42857143  0.48518519  1
  Ti  Ti6545  1  0.35714286  0.50000000  0.48518519  1
  Ti  Ti6546  1  0.35714286  0.57142857  0.48518519  1
  Ti  Ti6547  1  0.35714286  0.64285714  0.48518519  1
  Ti  Ti6548  1  0.35714286  0.71428571  0.48518519  1
  Ti  Ti6549  1  0.35714286  0.78571429  0.48518519  1
  Ti  Ti6550  1  0.35714286  0.85714286  0.48518519  1
  Ti  Ti6551  1  0.35714286  0.92857143  0.48518519  1
  Ti  Ti6552  1  0.42857143  0.00000000  0.48518519  1
  Ti  Ti6553  1  0.42857143  0.07142857  0.48518519  1
  Ti  Ti6554  1  0.42857143  0.14285714  0.48518519  1
  Ti  Ti6555  1  0.42857143  0.21428571  0.48518519  1
  Ti  Ti6556  1  0.42857143  0.28571429  0.48518519  1
  Ti  Ti6557  1  0.42857143  0.35714286  0.48518519  1
  Ti  Ti6558  1  0.42857143  0.42857143  0.48518519  1
  Ti  Ti6559  1  0.42857143  0.50000000  0.48518519  1
  Ti  Ti6560  1  0.42857143  0.57142857  0.48518519  1
  Ti  Ti6561  1  0.42857143  0.64285714  0.48518519  1
  Ti  Ti6562  1  0.42857143  0.71428571  0.48518519  1
  Ti  Ti6563  1  0.42857143  0.78571429  0.48518519  1
  Ti  Ti6564  1  0.42857143  0.85714286  0.48518519  1
  Ti  Ti6565  1  0.42857143  0.92857143  0.48518519  1
  Ti  Ti6566  1  0.50000000  0.00000000  0.48518519  1
  Ti  Ti6567  1  0.50000000  0.07142857  0.48518519  1
  Ti  Ti6568  1  0.50000000  0.14285714  0.48518519  1
  Ti  Ti6569  1  0.50000000  0.21428571  0.48518519  1
  Ti  Ti6570  1  0.50000000  0.28571429  0.48518519  1
  Ti  Ti6571  1  0.50000000  0.35714286  0.48518519  1
  Ti  Ti6572  1  0.50000000  0.42857143  0.48518519  1
  Ti  Ti6573  1  0.50000000  0.50000000  0.48518519  1
  Ti  Ti6574  1  0.50000000  0.57142857  0.48518519  1
  Ti  Ti6575  1  0.50000000  0.64285714  0.48518519  1
  Ti  Ti6576  1  0.50000000  0.71428571  0.48518519  1
  Ti  Ti6577  1  0.50000000  0.78571429  0.48518519  1
  Ti  Ti6578  1  0.50000000  0.85714286  0.48518519  1
  Ti  Ti6579  1  0.50000000  0.92857143  0.48518519  1
  Ti  Ti6580  1  0.57142857  0.00000000  0.48518519  1
  Ti  Ti6581  1  0.57142857  0.07142857  0.48518519  1
  Ti  Ti6582  1  0.57142857  0.14285714  0.48518519  1
  Ti  Ti6583  1  0.57142857  0.21428571  0.48518519  1
  Ti  Ti6584  1  0.57142857  0.28571429  0.48518519  1
  Ti  Ti6585  1  0.57142857  0.35714286  0.48518519  1
  Ti  Ti6586  1  0.57142857  0.42857143  0.48518519  1
  Ti  Ti6587  1  0.57142857  0.50000000  0.48518519  1
  Ti  Ti6588  1  0.57142857  0.57142857  0.48518519  1
  Ti  Ti6589  1  0.57142857  0.64285714  0.48518519  1
  Ti  Ti6590  1  0.57142857  0.71428571  0.48518519  1
  Ti  Ti6591  1  0.57142857  0.78571429  0.48518519  1
  Ti  Ti6592  1  0.57142857  0.85714286  0.48518519  1
  Ti  Ti6593  1  0.57142857  0.92857143  0.48518519  1
  Ti  Ti6594  1  0.64285714  0.00000000  0.48518519  1
  Ti  Ti6595  1  0.64285714  0.07142857  0.48518519  1
  Ti  Ti6596  1  0.64285714  0.14285714  0.48518519  1
  Ti  Ti6597  1  0.64285714  0.21428571  0.48518519  1
  Ti  Ti6598  1  0.64285714  0.28571429  0.48518519  1
  Ti  Ti6599  1  0.64285714  0.35714286  0.48518519  1
  Ti  Ti6600  1  0.64285714  0.42857143  0.48518519  1
  Ti  Ti6601  1  0.64285714  0.50000000  0.48518519  1
  Ti  Ti6602  1  0.64285714  0.57142857  0.48518519  1
  Ti  Ti6603  1  0.64285714  0.64285714  0.48518519  1
  Ti  Ti6604  1  0.64285714  0.71428571  0.48518519  1
  Ti  Ti6605  1  0.64285714  0.78571429  0.48518519  1
  Ti  Ti6606  1  0.64285714  0.85714286  0.48518519  1
  Ti  Ti6607  1  0.64285714  0.92857143  0.48518519  1
  Ti  Ti6608  1  0.71428571  0.00000000  0.48518519  1
  Ti  Ti6609  1  0.71428571  0.07142857  0.48518519  1
  Ti  Ti6610  1  0.71428571  0.14285714  0.48518519  1
  Ti  Ti6611  1  0.71428571  0.21428571  0.48518519  1
  Ti  Ti6612  1  0.71428571  0.28571429  0.48518519  1
  Ti  Ti6613  1  0.71428571  0.35714286  0.48518519  1
  Ti  Ti6614  1  0.71428571  0.42857143  0.48518519  1
  Ti  Ti6615  1  0.71428571  0.50000000  0.48518519  1
  Ti  Ti6616  1  0.71428571  0.57142857  0.48518519  1
  Ti  Ti6617  1  0.71428571  0.64285714  0.48518519  1
  Ti  Ti6618  1  0.71428571  0.71428571  0.48518519  1
  Ti  Ti6619  1  0.71428571  0.78571429  0.48518519  1
  Ti  Ti6620  1  0.71428571  0.85714286  0.48518519  1
  Ti  Ti6621  1  0.71428571  0.92857143  0.48518519  1
  Ti  Ti6622  1  0.78571429  0.00000000  0.48518519  1
  Ti  Ti6623  1  0.78571429  0.07142857  0.48518519  1
  Ti  Ti6624  1  0.78571429  0.14285714  0.48518519  1
  Ti  Ti6625  1  0.78571429  0.21428571  0.48518519  1
  Ti  Ti6626  1  0.78571429  0.28571429  0.48518519  1
  Ti  Ti6627  1  0.78571429  0.35714286  0.48518519  1
  Ti  Ti6628  1  0.78571429  0.42857143  0.48518519  1
  Ti  Ti6629  1  0.78571429  0.50000000  0.48518519  1
  Ti  Ti6630  1  0.78571429  0.57142857  0.48518519  1
  Ti  Ti6631  1  0.78571429  0.64285714  0.48518519  1
  Ti  Ti6632  1  0.78571429  0.71428571  0.48518519  1
  Ti  Ti6633  1  0.78571429  0.78571429  0.48518519  1
  Ti  Ti6634  1  0.78571429  0.85714286  0.48518519  1
  Ti  Ti6635  1  0.78571429  0.92857143  0.48518519  1
  Ti  Ti6636  1  0.85714286  0.00000000  0.48518519  1
  Ti  Ti6637  1  0.85714286  0.07142857  0.48518519  1
  Ti  Ti6638  1  0.85714286  0.14285714  0.48518519  1
  Ti  Ti6639  1  0.85714286  0.21428571  0.48518519  1
  Ti  Ti6640  1  0.85714286  0.28571429  0.48518519  1
  Ti  Ti6641  1  0.85714286  0.35714286  0.48518519  1
  Ti  Ti6642  1  0.85714286  0.42857143  0.48518519  1
  Ti  Ti6643  1  0.85714286  0.50000000  0.48518519  1
  Ti  Ti6644  1  0.85714286  0.57142857  0.48518519  1
  Ti  Ti6645  1  0.85714286  0.64285714  0.48518519  1
  Ti  Ti6646  1  0.85714286  0.71428571  0.48518519  1
  Ti  Ti6647  1  0.85714286  0.78571429  0.48518519  1
  Ti  Ti6648  1  0.85714286  0.85714286  0.48518519  1
  Ti  Ti6649  1  0.85714286  0.92857143  0.48518519  1
  Ti  Ti6650  1  0.92857143  0.00000000  0.48518519  1
  Ti  Ti6651  1  0.92857143  0.07142857  0.48518519  1
  Ti  Ti6652  1  0.92857143  0.14285714  0.48518519  1
  Ti  Ti6653  1  0.92857143  0.21428571  0.48518519  1
  Ti  Ti6654  1  0.92857143  0.28571429  0.48518519  1
  Ti  Ti6655  1  0.92857143  0.35714286  0.48518519  1
  Ti  Ti6656  1  0.92857143  0.42857143  0.48518519  1
  Ti  Ti6657  1  0.92857143  0.50000000  0.48518519  1
  Ti  Ti6658  1  0.92857143  0.57142857  0.48518519  1
  Ti  Ti6659  1  0.92857143  0.64285714  0.48518519  1
  Ti  Ti6660  1  0.92857143  0.71428571  0.48518519  1
  Ti  Ti6661  1  0.92857143  0.78571429  0.48518519  1
  Ti  Ti6662  1  0.92857143  0.85714286  0.48518519  1
  Ti  Ti6663  1  0.92857143  0.92857143  0.48518519  1
  Ti  Ti6664  1  0.02380950  0.04761907  0.47407407  1
  Ti  Ti6665  1  0.02380950  0.11904764  0.47407407  1
  Ti  Ti6666  1  0.02380950  0.19047621  0.47407407  1
  Ti  Ti6667  1  0.02380950  0.26190479  0.47407407  1
  Ti  Ti6668  1  0.02380950  0.33333336  0.47407407  1
  Ti  Ti6669  1  0.02380950  0.40476193  0.47407407  1
  Ti  Ti6670  1  0.02380950  0.47619050  0.47407407  1
  Ti  Ti6671  1  0.02380950  0.54761907  0.47407407  1
  Ti  Ti6672  1  0.02380950  0.61904764  0.47407407  1
  Ti  Ti6673  1  0.02380950  0.69047621  0.47407407  1
  Ti  Ti6674  1  0.02380950  0.76190479  0.47407407  1
  Ti  Ti6675  1  0.02380950  0.83333336  0.47407407  1
  Ti  Ti6676  1  0.02380950  0.90476193  0.47407407  1
  Ti  Ti6677  1  0.02380950  0.97619050  0.47407407  1
  Ti  Ti6678  1  0.09523807  0.04761907  0.47407407  1
  Ti  Ti6679  1  0.09523807  0.11904764  0.47407407  1
  Ti  Ti6680  1  0.09523807  0.19047621  0.47407407  1
  Ti  Ti6681  1  0.09523807  0.26190479  0.47407407  1
  Ti  Ti6682  1  0.09523807  0.33333336  0.47407407  1
  Ti  Ti6683  1  0.09523807  0.40476193  0.47407407  1
  Ti  Ti6684  1  0.09523807  0.47619050  0.47407407  1
  Ti  Ti6685  1  0.09523807  0.54761907  0.47407407  1
  Ti  Ti6686  1  0.09523807  0.61904764  0.47407407  1
  Ti  Ti6687  1  0.09523807  0.69047621  0.47407407  1
  Ti  Ti6688  1  0.09523807  0.76190479  0.47407407  1
  Ti  Ti6689  1  0.09523807  0.83333336  0.47407407  1
  Ti  Ti6690  1  0.09523807  0.90476193  0.47407407  1
  Ti  Ti6691  1  0.09523807  0.97619050  0.47407407  1
  Ti  Ti6692  1  0.16666664  0.04761907  0.47407407  1
  Ti  Ti6693  1  0.16666664  0.11904764  0.47407407  1
  Ti  Ti6694  1  0.16666664  0.19047621  0.47407407  1
  Ti  Ti6695  1  0.16666664  0.26190479  0.47407407  1
  Ti  Ti6696  1  0.16666664  0.33333336  0.47407407  1
  Ti  Ti6697  1  0.16666664  0.40476193  0.47407407  1
  Ti  Ti6698  1  0.16666664  0.47619050  0.47407407  1
  Ti  Ti6699  1  0.16666664  0.54761907  0.47407407  1
  Ti  Ti6700  1  0.16666664  0.61904764  0.47407407  1
  Ti  Ti6701  1  0.16666664  0.69047621  0.47407407  1
  Ti  Ti6702  1  0.16666664  0.76190479  0.47407407  1
  Ti  Ti6703  1  0.16666664  0.83333336  0.47407407  1
  Ti  Ti6704  1  0.16666664  0.90476193  0.47407407  1
  Ti  Ti6705  1  0.16666664  0.97619050  0.47407407  1
  Ti  Ti6706  1  0.23809521  0.04761907  0.47407407  1
  Ti  Ti6707  1  0.23809521  0.11904764  0.47407407  1
  Ti  Ti6708  1  0.23809521  0.19047621  0.47407407  1
  Ti  Ti6709  1  0.23809521  0.26190479  0.47407407  1
  Ti  Ti6710  1  0.23809521  0.33333336  0.47407407  1
  Ti  Ti6711  1  0.23809521  0.40476193  0.47407407  1
  Ti  Ti6712  1  0.23809521  0.47619050  0.47407407  1
  Ti  Ti6713  1  0.23809521  0.54761907  0.47407407  1
  Ti  Ti6714  1  0.23809521  0.61904764  0.47407407  1
  Ti  Ti6715  1  0.23809521  0.69047621  0.47407407  1
  Ti  Ti6716  1  0.23809521  0.76190479  0.47407407  1
  Ti  Ti6717  1  0.23809521  0.83333336  0.47407407  1
  Ti  Ti6718  1  0.23809521  0.90476193  0.47407407  1
  Ti  Ti6719  1  0.23809521  0.97619050  0.47407407  1
  Ti  Ti6720  1  0.30952379  0.04761907  0.47407407  1
  Ti  Ti6721  1  0.30952379  0.11904764  0.47407407  1
  Ti  Ti6722  1  0.30952379  0.19047621  0.47407407  1
  Ti  Ti6723  1  0.30952379  0.26190479  0.47407407  1
  Ti  Ti6724  1  0.30952379  0.33333336  0.47407407  1
  Ti  Ti6725  1  0.30952379  0.40476193  0.47407407  1
  Ti  Ti6726  1  0.30952379  0.47619050  0.47407407  1
  Ti  Ti6727  1  0.30952379  0.54761907  0.47407407  1
  Ti  Ti6728  1  0.30952379  0.61904764  0.47407407  1
  Ti  Ti6729  1  0.30952379  0.69047621  0.47407407  1
  Ti  Ti6730  1  0.30952379  0.76190479  0.47407407  1
  Ti  Ti6731  1  0.30952379  0.83333336  0.47407407  1
  Ti  Ti6732  1  0.30952379  0.90476193  0.47407407  1
  Ti  Ti6733  1  0.30952379  0.97619050  0.47407407  1
  Ti  Ti6734  1  0.38095236  0.04761907  0.47407407  1
  Ti  Ti6735  1  0.38095236  0.11904764  0.47407407  1
  Ti  Ti6736  1  0.38095236  0.19047621  0.47407407  1
  Ti  Ti6737  1  0.38095236  0.26190479  0.47407407  1
  Ti  Ti6738  1  0.38095236  0.33333336  0.47407407  1
  Ti  Ti6739  1  0.38095236  0.40476193  0.47407407  1
  Ti  Ti6740  1  0.38095236  0.47619050  0.47407407  1
  Ti  Ti6741  1  0.38095236  0.54761907  0.47407407  1
  Ti  Ti6742  1  0.38095236  0.61904764  0.47407407  1
  Ti  Ti6743  1  0.38095236  0.69047621  0.47407407  1
  Ti  Ti6744  1  0.38095236  0.76190479  0.47407407  1
  Ti  Ti6745  1  0.38095236  0.83333336  0.47407407  1
  Ti  Ti6746  1  0.38095236  0.90476193  0.47407407  1
  Ti  Ti6747  1  0.38095236  0.97619050  0.47407407  1
  Ti  Ti6748  1  0.45238093  0.04761907  0.47407407  1
  Ti  Ti6749  1  0.45238093  0.11904764  0.47407407  1
  Ti  Ti6750  1  0.45238093  0.19047621  0.47407407  1
  Ti  Ti6751  1  0.45238093  0.26190479  0.47407407  1
  Ti  Ti6752  1  0.45238093  0.33333336  0.47407407  1
  Ti  Ti6753  1  0.45238093  0.40476193  0.47407407  1
  Ti  Ti6754  1  0.45238093  0.47619050  0.47407407  1
  Ti  Ti6755  1  0.45238093  0.54761907  0.47407407  1
  Ti  Ti6756  1  0.45238093  0.61904764  0.47407407  1
  Ti  Ti6757  1  0.45238093  0.69047621  0.47407407  1
  Ti  Ti6758  1  0.45238093  0.76190479  0.47407407  1
  Ti  Ti6759  1  0.45238093  0.83333336  0.47407407  1
  Ti  Ti6760  1  0.45238093  0.90476193  0.47407407  1
  Ti  Ti6761  1  0.45238093  0.97619050  0.47407407  1
  Ti  Ti6762  1  0.52380950  0.04761907  0.47407407  1
  Ti  Ti6763  1  0.52380950  0.11904764  0.47407407  1
  Ti  Ti6764  1  0.52380950  0.19047621  0.47407407  1
  Ti  Ti6765  1  0.52380950  0.26190479  0.47407407  1
  Ti  Ti6766  1  0.52380950  0.33333336  0.47407407  1
  Ti  Ti6767  1  0.52380950  0.40476193  0.47407407  1
  Ti  Ti6768  1  0.52380950  0.47619050  0.47407407  1
  Ti  Ti6769  1  0.52380950  0.54761907  0.47407407  1
  Ti  Ti6770  1  0.52380950  0.61904764  0.47407407  1
  Ti  Ti6771  1  0.52380950  0.69047621  0.47407407  1
  Ti  Ti6772  1  0.52380950  0.76190479  0.47407407  1
  Ti  Ti6773  1  0.52380950  0.83333336  0.47407407  1
  Ti  Ti6774  1  0.52380950  0.90476193  0.47407407  1
  Ti  Ti6775  1  0.52380950  0.97619050  0.47407407  1
  Ti  Ti6776  1  0.59523807  0.04761907  0.47407407  1
  Ti  Ti6777  1  0.59523807  0.11904764  0.47407407  1
  Ti  Ti6778  1  0.59523807  0.19047621  0.47407407  1
  Ti  Ti6779  1  0.59523807  0.26190479  0.47407407  1
  Ti  Ti6780  1  0.59523807  0.33333336  0.47407407  1
  Ti  Ti6781  1  0.59523807  0.40476193  0.47407407  1
  Ti  Ti6782  1  0.59523807  0.47619050  0.47407407  1
  Ti  Ti6783  1  0.59523807  0.54761907  0.47407407  1
  Ti  Ti6784  1  0.59523807  0.61904764  0.47407407  1
  Ti  Ti6785  1  0.59523807  0.69047621  0.47407407  1
  Ti  Ti6786  1  0.59523807  0.76190479  0.47407407  1
  Ti  Ti6787  1  0.59523807  0.83333336  0.47407407  1
  Ti  Ti6788  1  0.59523807  0.90476193  0.47407407  1
  Ti  Ti6789  1  0.59523807  0.97619050  0.47407407  1
  Ti  Ti6790  1  0.66666664  0.04761907  0.47407407  1
  Ti  Ti6791  1  0.66666664  0.11904764  0.47407407  1
  Ti  Ti6792  1  0.66666664  0.19047621  0.47407407  1
  Ti  Ti6793  1  0.66666664  0.26190479  0.47407407  1
  Ti  Ti6794  1  0.66666664  0.33333336  0.47407407  1
  Ti  Ti6795  1  0.66666664  0.40476193  0.47407407  1
  Ti  Ti6796  1  0.66666664  0.47619050  0.47407407  1
  Ti  Ti6797  1  0.66666664  0.54761907  0.47407407  1
  Ti  Ti6798  1  0.66666664  0.61904764  0.47407407  1
  Ti  Ti6799  1  0.66666664  0.69047621  0.47407407  1
  Ti  Ti6800  1  0.66666664  0.76190479  0.47407407  1
  Ti  Ti6801  1  0.66666664  0.83333336  0.47407407  1
  Ti  Ti6802  1  0.66666664  0.90476193  0.47407407  1
  Ti  Ti6803  1  0.66666664  0.97619050  0.47407407  1
  Ti  Ti6804  1  0.73809521  0.04761907  0.47407407  1
  Ti  Ti6805  1  0.73809521  0.11904764  0.47407407  1
  Ti  Ti6806  1  0.73809521  0.19047621  0.47407407  1
  Ti  Ti6807  1  0.73809521  0.26190479  0.47407407  1
  Ti  Ti6808  1  0.73809521  0.33333336  0.47407407  1
  Ti  Ti6809  1  0.73809521  0.40476193  0.47407407  1
  Ti  Ti6810  1  0.73809521  0.47619050  0.47407407  1
  Ti  Ti6811  1  0.73809521  0.54761907  0.47407407  1
  Ti  Ti6812  1  0.73809521  0.61904764  0.47407407  1
  Ti  Ti6813  1  0.73809521  0.69047621  0.47407407  1
  Ti  Ti6814  1  0.73809521  0.76190479  0.47407407  1
  Ti  Ti6815  1  0.73809521  0.83333336  0.47407407  1
  Ti  Ti6816  1  0.73809521  0.90476193  0.47407407  1
  Ti  Ti6817  1  0.73809521  0.97619050  0.47407407  1
  Ti  Ti6818  1  0.80952379  0.04761907  0.47407407  1
  Ti  Ti6819  1  0.80952379  0.11904764  0.47407407  1
  Ti  Ti6820  1  0.80952379  0.19047621  0.47407407  1
  Ti  Ti6821  1  0.80952379  0.26190479  0.47407407  1
  Ti  Ti6822  1  0.80952379  0.33333336  0.47407407  1
  Ti  Ti6823  1  0.80952379  0.40476193  0.47407407  1
  Ti  Ti6824  1  0.80952379  0.47619050  0.47407407  1
  Ti  Ti6825  1  0.80952379  0.54761907  0.47407407  1
  Ti  Ti6826  1  0.80952379  0.61904764  0.47407407  1
  Ti  Ti6827  1  0.80952379  0.69047621  0.47407407  1
  Ti  Ti6828  1  0.80952379  0.76190479  0.47407407  1
  Ti  Ti6829  1  0.80952379  0.83333336  0.47407407  1
  Ti  Ti6830  1  0.80952379  0.90476193  0.47407407  1
  Ti  Ti6831  1  0.80952379  0.97619050  0.47407407  1
  Ti  Ti6832  1  0.88095236  0.04761907  0.47407407  1
  Ti  Ti6833  1  0.88095236  0.11904764  0.47407407  1
  Ti  Ti6834  1  0.88095236  0.19047621  0.47407407  1
  Ti  Ti6835  1  0.88095236  0.26190479  0.47407407  1
  Ti  Ti6836  1  0.88095236  0.33333336  0.47407407  1
  Ti  Ti6837  1  0.88095236  0.40476193  0.47407407  1
  Ti  Ti6838  1  0.88095236  0.47619050  0.47407407  1
  Ti  Ti6839  1  0.88095236  0.54761907  0.47407407  1
  Ti  Ti6840  1  0.88095236  0.61904764  0.47407407  1
  Ti  Ti6841  1  0.88095236  0.69047621  0.47407407  1
  Ti  Ti6842  1  0.88095236  0.76190479  0.47407407  1
  Ti  Ti6843  1  0.88095236  0.83333336  0.47407407  1
  Ti  Ti6844  1  0.88095236  0.90476193  0.47407407  1
  Ti  Ti6845  1  0.88095236  0.97619050  0.47407407  1
  Ti  Ti6846  1  0.95238093  0.04761907  0.47407407  1
  Ti  Ti6847  1  0.95238093  0.11904764  0.47407407  1
  Ti  Ti6848  1  0.95238093  0.19047621  0.47407407  1
  Ti  Ti6849  1  0.95238093  0.26190479  0.47407407  1
  Ti  Ti6850  1  0.95238093  0.33333336  0.47407407  1
  Ti  Ti6851  1  0.95238093  0.40476193  0.47407407  1
  Ti  Ti6852  1  0.95238093  0.47619050  0.47407407  1
  Ti  Ti6853  1  0.95238093  0.54761907  0.47407407  1
  Ti  Ti6854  1  0.95238093  0.61904764  0.47407407  1
  Ti  Ti6855  1  0.95238093  0.69047621  0.47407407  1
  Ti  Ti6856  1  0.95238093  0.76190479  0.47407407  1
  Ti  Ti6857  1  0.95238093  0.83333336  0.47407407  1
  Ti  Ti6858  1  0.95238093  0.90476193  0.47407407  1
  Ti  Ti6859  1  0.95238093  0.97619050  0.47407407  1
  Ti  Ti6860  1  0.04761907  0.02380950  0.47407407  1
  Ti  Ti6861  1  0.04761907  0.09523807  0.47407407  1
  Ti  Ti6862  1  0.04761907  0.16666664  0.47407407  1
  Ti  Ti6863  1  0.04761907  0.23809521  0.47407407  1
  Ti  Ti6864  1  0.04761907  0.30952379  0.47407407  1
  Ti  Ti6865  1  0.04761907  0.38095236  0.47407407  1
  Ti  Ti6866  1  0.04761907  0.45238093  0.47407407  1
  Ti  Ti6867  1  0.04761907  0.52380950  0.47407407  1
  Ti  Ti6868  1  0.04761907  0.59523807  0.47407407  1
  Ti  Ti6869  1  0.04761907  0.66666664  0.47407407  1
  Ti  Ti6870  1  0.04761907  0.73809521  0.47407407  1
  Ti  Ti6871  1  0.04761907  0.80952379  0.47407407  1
  Ti  Ti6872  1  0.04761907  0.88095236  0.47407407  1
  Ti  Ti6873  1  0.04761907  0.95238093  0.47407407  1
  Ti  Ti6874  1  0.11904764  0.02380950  0.47407407  1
  Ti  Ti6875  1  0.11904764  0.09523807  0.47407407  1
  Ti  Ti6876  1  0.11904764  0.16666664  0.47407407  1
  Ti  Ti6877  1  0.11904764  0.23809521  0.47407407  1
  Ti  Ti6878  1  0.11904764  0.30952379  0.47407407  1
  Ti  Ti6879  1  0.11904764  0.38095236  0.47407407  1
  Ti  Ti6880  1  0.11904764  0.45238093  0.47407407  1
  Ti  Ti6881  1  0.11904764  0.52380950  0.47407407  1
  Ti  Ti6882  1  0.11904764  0.59523807  0.47407407  1
  Ti  Ti6883  1  0.11904764  0.66666664  0.47407407  1
  Ti  Ti6884  1  0.11904764  0.73809521  0.47407407  1
  Ti  Ti6885  1  0.11904764  0.80952379  0.47407407  1
  Ti  Ti6886  1  0.11904764  0.88095236  0.47407407  1
  Ti  Ti6887  1  0.11904764  0.95238093  0.47407407  1
  Ti  Ti6888  1  0.19047621  0.02380950  0.47407407  1
  Ti  Ti6889  1  0.19047621  0.09523807  0.47407407  1
  Ti  Ti6890  1  0.19047621  0.16666664  0.47407407  1
  Ti  Ti6891  1  0.19047621  0.23809521  0.47407407  1
  Ti  Ti6892  1  0.19047621  0.30952379  0.47407407  1
  Ti  Ti6893  1  0.19047621  0.38095236  0.47407407  1
  Ti  Ti6894  1  0.19047621  0.45238093  0.47407407  1
  Ti  Ti6895  1  0.19047621  0.52380950  0.47407407  1
  Ti  Ti6896  1  0.19047621  0.59523807  0.47407407  1
  Ti  Ti6897  1  0.19047621  0.66666664  0.47407407  1
  Ti  Ti6898  1  0.19047621  0.73809521  0.47407407  1
  Ti  Ti6899  1  0.19047621  0.80952379  0.47407407  1
  Ti  Ti6900  1  0.19047621  0.88095236  0.47407407  1
  Ti  Ti6901  1  0.19047621  0.95238093  0.47407407  1
  Ti  Ti6902  1  0.26190479  0.02380950  0.47407407  1
  Ti  Ti6903  1  0.26190479  0.09523807  0.47407407  1
  Ti  Ti6904  1  0.26190479  0.16666664  0.47407407  1
  Ti  Ti6905  1  0.26190479  0.23809521  0.47407407  1
  Ti  Ti6906  1  0.26190479  0.30952379  0.47407407  1
  Ti  Ti6907  1  0.26190479  0.38095236  0.47407407  1
  Ti  Ti6908  1  0.26190479  0.45238093  0.47407407  1
  Ti  Ti6909  1  0.26190479  0.52380950  0.47407407  1
  Ti  Ti6910  1  0.26190479  0.59523807  0.47407407  1
  Ti  Ti6911  1  0.26190479  0.66666664  0.47407407  1
  Ti  Ti6912  1  0.26190479  0.73809521  0.47407407  1
  Ti  Ti6913  1  0.26190479  0.80952379  0.47407407  1
  Ti  Ti6914  1  0.26190479  0.88095236  0.47407407  1
  Ti  Ti6915  1  0.26190479  0.95238093  0.47407407  1
  Ti  Ti6916  1  0.33333336  0.02380950  0.47407407  1
  Ti  Ti6917  1  0.33333336  0.09523807  0.47407407  1
  Ti  Ti6918  1  0.33333336  0.16666664  0.47407407  1
  Ti  Ti6919  1  0.33333336  0.23809521  0.47407407  1
  Ti  Ti6920  1  0.33333336  0.30952379  0.47407407  1
  Ti  Ti6921  1  0.33333336  0.38095236  0.47407407  1
  Ti  Ti6922  1  0.33333336  0.45238093  0.47407407  1
  Ti  Ti6923  1  0.33333336  0.52380950  0.47407407  1
  Ti  Ti6924  1  0.33333336  0.59523807  0.47407407  1
  Ti  Ti6925  1  0.33333336  0.66666664  0.47407407  1
  Ti  Ti6926  1  0.33333336  0.73809521  0.47407407  1
  Ti  Ti6927  1  0.33333336  0.80952379  0.47407407  1
  Ti  Ti6928  1  0.33333336  0.88095236  0.47407407  1
  Ti  Ti6929  1  0.33333336  0.95238093  0.47407407  1
  Ti  Ti6930  1  0.40476193  0.02380950  0.47407407  1
  Ti  Ti6931  1  0.40476193  0.09523807  0.47407407  1
  Ti  Ti6932  1  0.40476193  0.16666664  0.47407407  1
  Ti  Ti6933  1  0.40476193  0.23809521  0.47407407  1
  Ti  Ti6934  1  0.40476193  0.30952379  0.47407407  1
  Ti  Ti6935  1  0.40476193  0.38095236  0.47407407  1
  Ti  Ti6936  1  0.40476193  0.45238093  0.47407407  1
  Ti  Ti6937  1  0.40476193  0.52380950  0.47407407  1
  Ti  Ti6938  1  0.40476193  0.59523807  0.47407407  1
  Ti  Ti6939  1  0.40476193  0.66666664  0.47407407  1
  Ti  Ti6940  1  0.40476193  0.73809521  0.47407407  1
  Ti  Ti6941  1  0.40476193  0.80952379  0.47407407  1
  Ti  Ti6942  1  0.40476193  0.88095236  0.47407407  1
  Ti  Ti6943  1  0.40476193  0.95238093  0.47407407  1
  Ti  Ti6944  1  0.47619050  0.02380950  0.47407407  1
  Ti  Ti6945  1  0.47619050  0.09523807  0.47407407  1
  Ti  Ti6946  1  0.47619050  0.16666664  0.47407407  1
  Ti  Ti6947  1  0.47619050  0.23809521  0.47407407  1
  Ti  Ti6948  1  0.47619050  0.30952379  0.47407407  1
  Ti  Ti6949  1  0.47619050  0.38095236  0.47407407  1
  Ti  Ti6950  1  0.47619050  0.45238093  0.47407407  1
  Ti  Ti6951  1  0.47619050  0.52380950  0.47407407  1
  Ti  Ti6952  1  0.47619050  0.59523807  0.47407407  1
  Ti  Ti6953  1  0.47619050  0.66666664  0.47407407  1
  Ti  Ti6954  1  0.47619050  0.73809521  0.47407407  1
  Ti  Ti6955  1  0.47619050  0.80952379  0.47407407  1
  Ti  Ti6956  1  0.47619050  0.88095236  0.47407407  1
  Ti  Ti6957  1  0.47619050  0.95238093  0.47407407  1
  Ti  Ti6958  1  0.54761907  0.02380950  0.47407407  1
  Ti  Ti6959  1  0.54761907  0.09523807  0.47407407  1
  Ti  Ti6960  1  0.54761907  0.16666664  0.47407407  1
  Ti  Ti6961  1  0.54761907  0.23809521  0.47407407  1
  Ti  Ti6962  1  0.54761907  0.30952379  0.47407407  1
  Ti  Ti6963  1  0.54761907  0.38095236  0.47407407  1
  Ti  Ti6964  1  0.54761907  0.45238093  0.47407407  1
  Ti  Ti6965  1  0.54761907  0.52380950  0.47407407  1
  Ti  Ti6966  1  0.54761907  0.59523807  0.47407407  1
  Ti  Ti6967  1  0.54761907  0.66666664  0.47407407  1
  Ti  Ti6968  1  0.54761907  0.73809521  0.47407407  1
  Ti  Ti6969  1  0.54761907  0.80952379  0.47407407  1
  Ti  Ti6970  1  0.54761907  0.88095236  0.47407407  1
  Ti  Ti6971  1  0.54761907  0.95238093  0.47407407  1
  Ti  Ti6972  1  0.61904764  0.02380950  0.47407407  1
  Ti  Ti6973  1  0.61904764  0.09523807  0.47407407  1
  Ti  Ti6974  1  0.61904764  0.16666664  0.47407407  1
  Ti  Ti6975  1  0.61904764  0.23809521  0.47407407  1
  Ti  Ti6976  1  0.61904764  0.30952379  0.47407407  1
  Ti  Ti6977  1  0.61904764  0.38095236  0.47407407  1
  Ti  Ti6978  1  0.61904764  0.45238093  0.47407407  1
  Ti  Ti6979  1  0.61904764  0.52380950  0.47407407  1
  Ti  Ti6980  1  0.61904764  0.59523807  0.47407407  1
  Ti  Ti6981  1  0.61904764  0.66666664  0.47407407  1
  Ti  Ti6982  1  0.61904764  0.73809521  0.47407407  1
  Ti  Ti6983  1  0.61904764  0.80952379  0.47407407  1
  Ti  Ti6984  1  0.61904764  0.88095236  0.47407407  1
  Ti  Ti6985  1  0.61904764  0.95238093  0.47407407  1
  Ti  Ti6986  1  0.69047621  0.02380950  0.47407407  1
  Ti  Ti6987  1  0.69047621  0.09523807  0.47407407  1
  Ti  Ti6988  1  0.69047621  0.16666664  0.47407407  1
  Ti  Ti6989  1  0.69047621  0.23809521  0.47407407  1
  Ti  Ti6990  1  0.69047621  0.30952379  0.47407407  1
  Ti  Ti6991  1  0.69047621  0.38095236  0.47407407  1
  Ti  Ti6992  1  0.69047621  0.45238093  0.47407407  1
  Ti  Ti6993  1  0.69047621  0.52380950  0.47407407  1
  Ti  Ti6994  1  0.69047621  0.59523807  0.47407407  1
  Ti  Ti6995  1  0.69047621  0.66666664  0.47407407  1
  Ti  Ti6996  1  0.69047621  0.73809521  0.47407407  1
  Ti  Ti6997  1  0.69047621  0.80952379  0.47407407  1
  Ti  Ti6998  1  0.69047621  0.88095236  0.47407407  1
  Ti  Ti6999  1  0.69047621  0.95238093  0.47407407  1
  Ti  Ti7000  1  0.76190479  0.02380950  0.47407407  1
  Ti  Ti7001  1  0.76190479  0.09523807  0.47407407  1
  Ti  Ti7002  1  0.76190479  0.16666664  0.47407407  1
  Ti  Ti7003  1  0.76190479  0.23809521  0.47407407  1
  Ti  Ti7004  1  0.76190479  0.30952379  0.47407407  1
  Ti  Ti7005  1  0.76190479  0.38095236  0.47407407  1
  Ti  Ti7006  1  0.76190479  0.45238093  0.47407407  1
  Ti  Ti7007  1  0.76190479  0.52380950  0.47407407  1
  Ti  Ti7008  1  0.76190479  0.59523807  0.47407407  1
  Ti  Ti7009  1  0.76190479  0.66666664  0.47407407  1
  Ti  Ti7010  1  0.76190479  0.73809521  0.47407407  1
  Ti  Ti7011  1  0.76190479  0.80952379  0.47407407  1
  Ti  Ti7012  1  0.76190479  0.88095236  0.47407407  1
  Ti  Ti7013  1  0.76190479  0.95238093  0.47407407  1
  Ti  Ti7014  1  0.83333336  0.02380950  0.47407407  1
  Ti  Ti7015  1  0.83333336  0.09523807  0.47407407  1
  Ti  Ti7016  1  0.83333336  0.16666664  0.47407407  1
  Ti  Ti7017  1  0.83333336  0.23809521  0.47407407  1
  Ti  Ti7018  1  0.83333336  0.30952379  0.47407407  1
  Ti  Ti7019  1  0.83333336  0.38095236  0.47407407  1
  Ti  Ti7020  1  0.83333336  0.45238093  0.47407407  1
  Ti  Ti7021  1  0.83333336  0.52380950  0.47407407  1
  Ti  Ti7022  1  0.83333336  0.59523807  0.47407407  1
  Ti  Ti7023  1  0.83333336  0.66666664  0.47407407  1
  Ti  Ti7024  1  0.83333336  0.73809521  0.47407407  1
  Ti  Ti7025  1  0.83333336  0.80952379  0.47407407  1
  Ti  Ti7026  1  0.83333336  0.88095236  0.47407407  1
  Ti  Ti7027  1  0.83333336  0.95238093  0.47407407  1
  Ti  Ti7028  1  0.90476193  0.02380950  0.47407407  1
  Ti  Ti7029  1  0.90476193  0.09523807  0.47407407  1
  Ti  Ti7030  1  0.90476193  0.16666664  0.47407407  1
  Ti  Ti7031  1  0.90476193  0.23809521  0.47407407  1
  Ti  Ti7032  1  0.90476193  0.30952379  0.47407407  1
  Ti  Ti7033  1  0.90476193  0.38095236  0.47407407  1
  Ti  Ti7034  1  0.90476193  0.45238093  0.47407407  1
  Ti  Ti7035  1  0.90476193  0.52380950  0.47407407  1
  Ti  Ti7036  1  0.90476193  0.59523807  0.47407407  1
  Ti  Ti7037  1  0.90476193  0.66666664  0.47407407  1
  Ti  Ti7038  1  0.90476193  0.73809521  0.47407407  1
  Ti  Ti7039  1  0.90476193  0.80952379  0.47407407  1
  Ti  Ti7040  1  0.90476193  0.88095236  0.47407407  1
  Ti  Ti7041  1  0.90476193  0.95238093  0.47407407  1
  Ti  Ti7042  1  0.97619050  0.02380950  0.47407407  1
  Ti  Ti7043  1  0.97619050  0.09523807  0.47407407  1
  Ti  Ti7044  1  0.97619050  0.16666664  0.47407407  1
  Ti  Ti7045  1  0.97619050  0.23809521  0.47407407  1
  Ti  Ti7046  1  0.97619050  0.30952379  0.47407407  1
  Ti  Ti7047  1  0.97619050  0.38095236  0.47407407  1
  Ti  Ti7048  1  0.97619050  0.45238093  0.47407407  1
  Ti  Ti7049  1  0.97619050  0.52380950  0.47407407  1
  Ti  Ti7050  1  0.97619050  0.59523807  0.47407407  1
  Ti  Ti7051  1  0.97619050  0.66666664  0.47407407  1
  Ti  Ti7052  1  0.97619050  0.73809521  0.47407407  1
  Ti  Ti7053  1  0.97619050  0.80952379  0.47407407  1
  Ti  Ti7054  1  0.97619050  0.88095236  0.47407407  1
  Ti  Ti7055  1  0.97619050  0.95238093  0.47407407  1
  Ti  Ti7056  1  0.00000000  0.00000000  0.50740741  1
  Ti  Ti7057  1  0.00000000  0.07142857  0.50740741  1
  Ti  Ti7058  1  0.00000000  0.14285714  0.50740741  1
  Ti  Ti7059  1  0.00000000  0.21428571  0.50740741  1
  Ti  Ti7060  1  0.00000000  0.28571429  0.50740741  1
  Ti  Ti7061  1  0.00000000  0.35714286  0.50740741  1
  Ti  Ti7062  1  0.00000000  0.42857143  0.50740741  1
  Ti  Ti7063  1  0.00000000  0.50000000  0.50740741  1
  Ti  Ti7064  1  0.00000000  0.57142857  0.50740741  1
  Ti  Ti7065  1  0.00000000  0.64285714  0.50740741  1
  Ti  Ti7066  1  0.00000000  0.71428571  0.50740741  1
  Ti  Ti7067  1  1.00000000  0.78571429  0.50740741  1
  Ti  Ti7068  1  0.00000000  0.85714286  0.50740741  1
  Ti  Ti7069  1  0.00000000  0.92857143  0.50740741  1
  Ti  Ti7070  1  0.07142857  0.00000000  0.50740741  1
  Ti  Ti7071  1  0.07142857  0.07142857  0.50740741  1
  Ti  Ti7072  1  0.07142857  0.14285714  0.50740741  1
  Ti  Ti7073  1  0.07142857  0.21428571  0.50740741  1
  Ti  Ti7074  1  0.07142857  0.28571429  0.50740741  1
  Ti  Ti7075  1  0.07142857  0.35714286  0.50740741  1
  Ti  Ti7076  1  0.07142857  0.42857143  0.50740741  1
  Ti  Ti7077  1  0.07142857  0.50000000  0.50740741  1
  Ti  Ti7078  1  0.07142857  0.57142857  0.50740741  1
  Ti  Ti7079  1  0.07142857  0.64285714  0.50740741  1
  Ti  Ti7080  1  0.07142857  0.71428571  0.50740741  1
  Ti  Ti7081  1  0.07142857  0.78571429  0.50740741  1
  Ti  Ti7082  1  0.07142857  0.85714286  0.50740741  1
  Ti  Ti7083  1  0.07142857  0.92857143  0.50740741  1
  Ti  Ti7084  1  0.14285714  0.00000000  0.50740741  1
  Ti  Ti7085  1  0.14285714  0.07142857  0.50740741  1
  Ti  Ti7086  1  0.14285714  0.14285714  0.50740741  1
  Ti  Ti7087  1  0.14285714  0.21428571  0.50740741  1
  Ti  Ti7088  1  0.14285714  0.28571429  0.50740741  1
  Ti  Ti7089  1  0.14285714  0.35714286  0.50740741  1
  Ti  Ti7090  1  0.14285714  0.42857143  0.50740741  1
  Ti  Ti7091  1  0.14285714  0.50000000  0.50740741  1
  Ti  Ti7092  1  0.14285714  0.57142857  0.50740741  1
  Ti  Ti7093  1  0.14285714  0.64285714  0.50740741  1
  Ti  Ti7094  1  0.14285714  0.71428571  0.50740741  1
  Ti  Ti7095  1  0.14285714  0.78571429  0.50740741  1
  Ti  Ti7096  1  0.14285714  0.85714286  0.50740741  1
  Ti  Ti7097  1  0.14285714  0.92857143  0.50740741  1
  Ti  Ti7098  1  0.21428571  0.00000000  0.50740741  1
  Ti  Ti7099  1  0.21428571  0.07142857  0.50740741  1
  Ti  Ti7100  1  0.21428571  0.14285714  0.50740741  1
  Ti  Ti7101  1  0.21428571  0.21428571  0.50740741  1
  Ti  Ti7102  1  0.21428571  0.28571429  0.50740741  1
  Ti  Ti7103  1  0.21428571  0.35714286  0.50740741  1
  Ti  Ti7104  1  0.21428571  0.42857143  0.50740741  1
  Ti  Ti7105  1  0.21428571  0.50000000  0.50740741  1
  Ti  Ti7106  1  0.21428571  0.57142857  0.50740741  1
  Ti  Ti7107  1  0.21428571  0.64285714  0.50740741  1
  Ti  Ti7108  1  0.21428571  0.71428571  0.50740741  1
  Ti  Ti7109  1  0.21428571  0.78571429  0.50740741  1
  Ti  Ti7110  1  0.21428571  0.85714286  0.50740741  1
  Ti  Ti7111  1  0.21428571  0.92857143  0.50740741  1
  Ti  Ti7112  1  0.28571429  0.00000000  0.50740741  1
  Ti  Ti7113  1  0.28571429  0.07142857  0.50740741  1
  Ti  Ti7114  1  0.28571429  0.14285714  0.50740741  1
  Ti  Ti7115  1  0.28571429  0.21428571  0.50740741  1
  Ti  Ti7116  1  0.28571429  0.28571429  0.50740741  1
  Ti  Ti7117  1  0.28571429  0.35714286  0.50740741  1
  Ti  Ti7118  1  0.28571429  0.42857143  0.50740741  1
  Ti  Ti7119  1  0.28571429  0.50000000  0.50740741  1
  Ti  Ti7120  1  0.28571429  0.57142857  0.50740741  1
  Ti  Ti7121  1  0.28571429  0.64285714  0.50740741  1
  Ti  Ti7122  1  0.28571429  0.71428571  0.50740741  1
  Ti  Ti7123  1  0.28571429  0.78571429  0.50740741  1
  Ti  Ti7124  1  0.28571429  0.85714286  0.50740741  1
  Ti  Ti7125  1  0.28571429  0.92857143  0.50740741  1
  Ti  Ti7126  1  0.35714286  0.00000000  0.50740741  1
  Ti  Ti7127  1  0.35714286  0.07142857  0.50740741  1
  Ti  Ti7128  1  0.35714286  0.14285714  0.50740741  1
  Ti  Ti7129  1  0.35714286  0.21428571  0.50740741  1
  Ti  Ti7130  1  0.35714286  0.28571429  0.50740741  1
  Ti  Ti7131  1  0.35714286  0.35714286  0.50740741  1
  Ti  Ti7132  1  0.35714286  0.42857143  0.50740741  1
  Ti  Ti7133  1  0.35714286  0.50000000  0.50740741  1
  Ti  Ti7134  1  0.35714286  0.57142857  0.50740741  1
  Ti  Ti7135  1  0.35714286  0.64285714  0.50740741  1
  Ti  Ti7136  1  0.35714286  0.71428571  0.50740741  1
  Ti  Ti7137  1  0.35714286  0.78571429  0.50740741  1
  Ti  Ti7138  1  0.35714286  0.85714286  0.50740741  1
  Ti  Ti7139  1  0.35714286  0.92857143  0.50740741  1
  Ti  Ti7140  1  0.42857143  0.00000000  0.50740741  1
  Ti  Ti7141  1  0.42857143  0.07142857  0.50740741  1
  Ti  Ti7142  1  0.42857143  0.14285714  0.50740741  1
  Ti  Ti7143  1  0.42857143  0.21428571  0.50740741  1
  Ti  Ti7144  1  0.42857143  0.28571429  0.50740741  1
  Ti  Ti7145  1  0.42857143  0.35714286  0.50740741  1
  Ti  Ti7146  1  0.42857143  0.42857143  0.50740741  1
  Ti  Ti7147  1  0.42857143  0.50000000  0.50740741  1
  Ti  Ti7148  1  0.42857143  0.57142857  0.50740741  1
  Ti  Ti7149  1  0.42857143  0.64285714  0.50740741  1
  Ti  Ti7150  1  0.42857143  0.71428571  0.50740741  1
  Ti  Ti7151  1  0.42857143  0.78571429  0.50740741  1
  Ti  Ti7152  1  0.42857143  0.85714286  0.50740741  1
  Ti  Ti7153  1  0.42857143  0.92857143  0.50740741  1
  Ti  Ti7154  1  0.50000000  0.00000000  0.50740741  1
  Ti  Ti7155  1  0.50000000  0.07142857  0.50740741  1
  Ti  Ti7156  1  0.50000000  0.14285714  0.50740741  1
  Ti  Ti7157  1  0.50000000  0.21428571  0.50740741  1
  Ti  Ti7158  1  0.50000000  0.28571429  0.50740741  1
  Ti  Ti7159  1  0.50000000  0.35714286  0.50740741  1
  Ti  Ti7160  1  0.50000000  0.42857143  0.50740741  1
  Ti  Ti7161  1  0.50000000  0.50000000  0.50740741  1
  Ti  Ti7162  1  0.50000000  0.57142857  0.50740741  1
  Ti  Ti7163  1  0.50000000  0.64285714  0.50740741  1
  Ti  Ti7164  1  0.50000000  0.71428571  0.50740741  1
  Ti  Ti7165  1  0.50000000  0.78571429  0.50740741  1
  Ti  Ti7166  1  0.50000000  0.85714286  0.50740741  1
  Ti  Ti7167  1  0.50000000  0.92857143  0.50740741  1
  Ti  Ti7168  1  0.57142857  0.00000000  0.50740741  1
  Ti  Ti7169  1  0.57142857  0.07142857  0.50740741  1
  Ti  Ti7170  1  0.57142857  0.14285714  0.50740741  1
  Ti  Ti7171  1  0.57142857  0.21428571  0.50740741  1
  Ti  Ti7172  1  0.57142857  0.28571429  0.50740741  1
  Ti  Ti7173  1  0.57142857  0.35714286  0.50740741  1
  Ti  Ti7174  1  0.57142857  0.42857143  0.50740741  1
  Ti  Ti7175  1  0.57142857  0.50000000  0.50740741  1
  Ti  Ti7176  1  0.57142857  0.57142857  0.50740741  1
  Ti  Ti7177  1  0.57142857  0.64285714  0.50740741  1
  Ti  Ti7178  1  0.57142857  0.71428571  0.50740741  1
  Ti  Ti7179  1  0.57142857  0.78571429  0.50740741  1
  Ti  Ti7180  1  0.57142857  0.85714286  0.50740741  1
  Ti  Ti7181  1  0.57142857  0.92857143  0.50740741  1
  Ti  Ti7182  1  0.64285714  0.00000000  0.50740741  1
  Ti  Ti7183  1  0.64285714  0.07142857  0.50740741  1
  Ti  Ti7184  1  0.64285714  0.14285714  0.50740741  1
  Ti  Ti7185  1  0.64285714  0.21428571  0.50740741  1
  Ti  Ti7186  1  0.64285714  0.28571429  0.50740741  1
  Ti  Ti7187  1  0.64285714  0.35714286  0.50740741  1
  Ti  Ti7188  1  0.64285714  0.42857143  0.50740741  1
  Ti  Ti7189  1  0.64285714  0.50000000  0.50740741  1
  Ti  Ti7190  1  0.64285714  0.57142857  0.50740741  1
  Ti  Ti7191  1  0.64285714  0.64285714  0.50740741  1
  Ti  Ti7192  1  0.64285714  0.71428571  0.50740741  1
  Ti  Ti7193  1  0.64285714  0.78571429  0.50740741  1
  Ti  Ti7194  1  0.64285714  0.85714286  0.50740741  1
  Ti  Ti7195  1  0.64285714  0.92857143  0.50740741  1
  Ti  Ti7196  1  0.71428571  0.00000000  0.50740741  1
  Ti  Ti7197  1  0.71428571  0.07142857  0.50740741  1
  Ti  Ti7198  1  0.71428571  0.14285714  0.50740741  1
  Ti  Ti7199  1  0.71428571  0.21428571  0.50740741  1
  Ti  Ti7200  1  0.71428571  0.28571429  0.50740741  1
  Ti  Ti7201  1  0.71428571  0.35714286  0.50740741  1
  Ti  Ti7202  1  0.71428571  0.42857143  0.50740741  1
  Ti  Ti7203  1  0.71428571  0.50000000  0.50740741  1
  Ti  Ti7204  1  0.71428571  0.57142857  0.50740741  1
  Ti  Ti7205  1  0.71428571  0.64285714  0.50740741  1
  Ti  Ti7206  1  0.71428571  0.71428571  0.50740741  1
  Ti  Ti7207  1  0.71428571  0.78571429  0.50740741  1
  Ti  Ti7208  1  0.71428571  0.85714286  0.50740741  1
  Ti  Ti7209  1  0.71428571  0.92857143  0.50740741  1
  Ti  Ti7210  1  0.78571429  0.00000000  0.50740741  1
  Ti  Ti7211  1  0.78571429  0.07142857  0.50740741  1
  Ti  Ti7212  1  0.78571429  0.14285714  0.50740741  1
  Ti  Ti7213  1  0.78571429  0.21428571  0.50740741  1
  Ti  Ti7214  1  0.78571429  0.28571429  0.50740741  1
  Ti  Ti7215  1  0.78571429  0.35714286  0.50740741  1
  Ti  Ti7216  1  0.78571429  0.42857143  0.50740741  1
  Ti  Ti7217  1  0.78571429  0.50000000  0.50740741  1
  Ti  Ti7218  1  0.78571429  0.57142857  0.50740741  1
  Ti  Ti7219  1  0.78571429  0.64285714  0.50740741  1
  Ti  Ti7220  1  0.78571429  0.71428571  0.50740741  1
  Ti  Ti7221  1  0.78571429  0.78571429  0.50740741  1
  Ti  Ti7222  1  0.78571429  0.85714286  0.50740741  1
  Ti  Ti7223  1  0.78571429  0.92857143  0.50740741  1
  Ti  Ti7224  1  0.85714286  0.00000000  0.50740741  1
  Ti  Ti7225  1  0.85714286  0.07142857  0.50740741  1
  Ti  Ti7226  1  0.85714286  0.14285714  0.50740741  1
  Ti  Ti7227  1  0.85714286  0.21428571  0.50740741  1
  Ti  Ti7228  1  0.85714286  0.28571429  0.50740741  1
  Ti  Ti7229  1  0.85714286  0.35714286  0.50740741  1
  Ti  Ti7230  1  0.85714286  0.42857143  0.50740741  1
  Ti  Ti7231  1  0.85714286  0.50000000  0.50740741  1
  Ti  Ti7232  1  0.85714286  0.57142857  0.50740741  1
  Ti  Ti7233  1  0.85714286  0.64285714  0.50740741  1
  Ti  Ti7234  1  0.85714286  0.71428571  0.50740741  1
  Ti  Ti7235  1  0.85714286  0.78571429  0.50740741  1
  Ti  Ti7236  1  0.85714286  0.85714286  0.50740741  1
  Ti  Ti7237  1  0.85714286  0.92857143  0.50740741  1
  Ti  Ti7238  1  0.92857143  0.00000000  0.50740741  1
  Ti  Ti7239  1  0.92857143  0.07142857  0.50740741  1
  Ti  Ti7240  1  0.92857143  0.14285714  0.50740741  1
  Ti  Ti7241  1  0.92857143  0.21428571  0.50740741  1
  Ti  Ti7242  1  0.92857143  0.28571429  0.50740741  1
  Ti  Ti7243  1  0.92857143  0.35714286  0.50740741  1
  Ti  Ti7244  1  0.92857143  0.42857143  0.50740741  1
  Ti  Ti7245  1  0.92857143  0.50000000  0.50740741  1
  Ti  Ti7246  1  0.92857143  0.57142857  0.50740741  1
  Ti  Ti7247  1  0.92857143  0.64285714  0.50740741  1
  Ti  Ti7248  1  0.92857143  0.71428571  0.50740741  1
  Ti  Ti7249  1  0.92857143  0.78571429  0.50740741  1
  Ti  Ti7250  1  0.92857143  0.85714286  0.50740741  1
  Ti  Ti7251  1  0.92857143  0.92857143  0.50740741  1
  Ti  Ti7252  1  0.02380950  0.04761907  0.49629630  1
  Ti  Ti7253  1  0.02380950  0.11904764  0.49629630  1
  Ti  Ti7254  1  0.02380950  0.19047621  0.49629630  1
  Ti  Ti7255  1  0.02380950  0.26190479  0.49629630  1
  Ti  Ti7256  1  0.02380950  0.33333336  0.49629630  1
  Ti  Ti7257  1  0.02380950  0.40476193  0.49629630  1
  Ti  Ti7258  1  0.02380950  0.47619050  0.49629630  1
  Ti  Ti7259  1  0.02380950  0.54761907  0.49629630  1
  Ti  Ti7260  1  0.02380950  0.61904764  0.49629630  1
  Ti  Ti7261  1  0.02380950  0.69047621  0.49629630  1
  Ti  Ti7262  1  0.02380950  0.76190479  0.49629630  1
  Ti  Ti7263  1  0.02380950  0.83333336  0.49629630  1
  Ti  Ti7264  1  0.02380950  0.90476193  0.49629630  1
  Ti  Ti7265  1  0.02380950  0.97619050  0.49629630  1
  Ti  Ti7266  1  0.09523807  0.04761907  0.49629630  1
  Ti  Ti7267  1  0.09523807  0.11904764  0.49629630  1
  Ti  Ti7268  1  0.09523807  0.19047621  0.49629630  1
  Ti  Ti7269  1  0.09523807  0.26190479  0.49629630  1
  Ti  Ti7270  1  0.09523807  0.33333336  0.49629630  1
  Ti  Ti7271  1  0.09523807  0.40476193  0.49629630  1
  Ti  Ti7272  1  0.09523807  0.47619050  0.49629630  1
  Ti  Ti7273  1  0.09523807  0.54761907  0.49629630  1
  Ti  Ti7274  1  0.09523807  0.61904764  0.49629630  1
  Ti  Ti7275  1  0.09523807  0.69047621  0.49629630  1
  Ti  Ti7276  1  0.09523807  0.76190479  0.49629630  1
  Ti  Ti7277  1  0.09523807  0.83333336  0.49629630  1
  Ti  Ti7278  1  0.09523807  0.90476193  0.49629630  1
  Ti  Ti7279  1  0.09523807  0.97619050  0.49629630  1
  Ti  Ti7280  1  0.16666664  0.04761907  0.49629630  1
  Ti  Ti7281  1  0.16666664  0.11904764  0.49629630  1
  Ti  Ti7282  1  0.16666664  0.19047621  0.49629630  1
  Ti  Ti7283  1  0.16666664  0.26190479  0.49629630  1
  Ti  Ti7284  1  0.16666664  0.33333336  0.49629630  1
  Ti  Ti7285  1  0.16666664  0.40476193  0.49629630  1
  Ti  Ti7286  1  0.16666664  0.47619050  0.49629630  1
  Ti  Ti7287  1  0.16666664  0.54761907  0.49629630  1
  Ti  Ti7288  1  0.16666664  0.61904764  0.49629630  1
  Ti  Ti7289  1  0.16666664  0.69047621  0.49629630  1
  Ti  Ti7290  1  0.16666664  0.76190479  0.49629630  1
  Ti  Ti7291  1  0.16666664  0.83333336  0.49629630  1
  Ti  Ti7292  1  0.16666664  0.90476193  0.49629630  1
  Ti  Ti7293  1  0.16666664  0.97619050  0.49629630  1
  Ti  Ti7294  1  0.23809521  0.04761907  0.49629630  1
  Ti  Ti7295  1  0.23809521  0.11904764  0.49629630  1
  Ti  Ti7296  1  0.23809521  0.19047621  0.49629630  1
  Ti  Ti7297  1  0.23809521  0.26190479  0.49629630  1
  Ti  Ti7298  1  0.23809521  0.33333336  0.49629630  1
  Ti  Ti7299  1  0.23809521  0.40476193  0.49629630  1
  Ti  Ti7300  1  0.23809521  0.47619050  0.49629630  1
  Ti  Ti7301  1  0.23809521  0.54761907  0.49629630  1
  Ti  Ti7302  1  0.23809521  0.61904764  0.49629630  1
  Ti  Ti7303  1  0.23809521  0.69047621  0.49629630  1
  Ti  Ti7304  1  0.23809521  0.76190479  0.49629630  1
  Ti  Ti7305  1  0.23809521  0.83333336  0.49629630  1
  Ti  Ti7306  1  0.23809521  0.90476193  0.49629630  1
  Ti  Ti7307  1  0.23809521  0.97619050  0.49629630  1
  Ti  Ti7308  1  0.30952379  0.04761907  0.49629630  1
  Ti  Ti7309  1  0.30952379  0.11904764  0.49629630  1
  Ti  Ti7310  1  0.30952379  0.19047621  0.49629630  1
  Ti  Ti7311  1  0.30952379  0.26190479  0.49629630  1
  Ti  Ti7312  1  0.30952379  0.33333336  0.49629630  1
  Ti  Ti7313  1  0.30952379  0.40476193  0.49629630  1
  Ti  Ti7314  1  0.30952379  0.47619050  0.49629630  1
  Ti  Ti7315  1  0.30952379  0.54761907  0.49629630  1
  Ti  Ti7316  1  0.30952379  0.61904764  0.49629630  1
  Ti  Ti7317  1  0.30952379  0.69047621  0.49629630  1
  Ti  Ti7318  1  0.30952379  0.76190479  0.49629630  1
  Ti  Ti7319  1  0.30952379  0.83333336  0.49629630  1
  Ti  Ti7320  1  0.30952379  0.90476193  0.49629630  1
  Ti  Ti7321  1  0.30952379  0.97619050  0.49629630  1
  Ti  Ti7322  1  0.38095236  0.04761907  0.49629630  1
  Ti  Ti7323  1  0.38095236  0.11904764  0.49629630  1
  Ti  Ti7324  1  0.38095236  0.19047621  0.49629630  1
  Ti  Ti7325  1  0.38095236  0.26190479  0.49629630  1
  Ti  Ti7326  1  0.38095236  0.33333336  0.49629630  1
  Ti  Ti7327  1  0.38095236  0.40476193  0.49629630  1
  Ti  Ti7328  1  0.38095236  0.47619050  0.49629630  1
  Ti  Ti7329  1  0.38095236  0.54761907  0.49629630  1
  Ti  Ti7330  1  0.38095236  0.61904764  0.49629630  1
  Ti  Ti7331  1  0.38095236  0.69047621  0.49629630  1
  Ti  Ti7332  1  0.38095236  0.76190479  0.49629630  1
  Ti  Ti7333  1  0.38095236  0.83333336  0.49629630  1
  Ti  Ti7334  1  0.38095236  0.90476193  0.49629630  1
  Ti  Ti7335  1  0.38095236  0.97619050  0.49629630  1
  Ti  Ti7336  1  0.45238093  0.04761907  0.49629630  1
  Ti  Ti7337  1  0.45238093  0.11904764  0.49629630  1
  Ti  Ti7338  1  0.45238093  0.19047621  0.49629630  1
  Ti  Ti7339  1  0.45238093  0.26190479  0.49629630  1
  Ti  Ti7340  1  0.45238093  0.33333336  0.49629630  1
  Ti  Ti7341  1  0.45238093  0.40476193  0.49629630  1
  Ti  Ti7342  1  0.45238093  0.47619050  0.49629630  1
  Ti  Ti7343  1  0.45238093  0.54761907  0.49629630  1
  Ti  Ti7344  1  0.45238093  0.61904764  0.49629630  1
  Ti  Ti7345  1  0.45238093  0.69047621  0.49629630  1
  Ti  Ti7346  1  0.45238093  0.76190479  0.49629630  1
  Ti  Ti7347  1  0.45238093  0.83333336  0.49629630  1
  Ti  Ti7348  1  0.45238093  0.90476193  0.49629630  1
  Ti  Ti7349  1  0.45238093  0.97619050  0.49629630  1
  Ti  Ti7350  1  0.52380950  0.04761907  0.49629630  1
  Ti  Ti7351  1  0.52380950  0.11904764  0.49629630  1
  Ti  Ti7352  1  0.52380950  0.19047621  0.49629630  1
  Ti  Ti7353  1  0.52380950  0.26190479  0.49629630  1
  Ti  Ti7354  1  0.52380950  0.33333336  0.49629630  1
  Ti  Ti7355  1  0.52380950  0.40476193  0.49629630  1
  Ti  Ti7356  1  0.52380950  0.47619050  0.49629630  1
  Ti  Ti7357  1  0.52380950  0.54761907  0.49629630  1
  Ti  Ti7358  1  0.52380950  0.61904764  0.49629630  1
  Ti  Ti7359  1  0.52380950  0.69047621  0.49629630  1
  Ti  Ti7360  1  0.52380950  0.76190479  0.49629630  1
  Ti  Ti7361  1  0.52380950  0.83333336  0.49629630  1
  Ti  Ti7362  1  0.52380950  0.90476193  0.49629630  1
  Ti  Ti7363  1  0.52380950  0.97619050  0.49629630  1
  Ti  Ti7364  1  0.59523807  0.04761907  0.49629630  1
  Ti  Ti7365  1  0.59523807  0.11904764  0.49629630  1
  Ti  Ti7366  1  0.59523807  0.19047621  0.49629630  1
  Ti  Ti7367  1  0.59523807  0.26190479  0.49629630  1
  Ti  Ti7368  1  0.59523807  0.33333336  0.49629630  1
  Ti  Ti7369  1  0.59523807  0.40476193  0.49629630  1
  Ti  Ti7370  1  0.59523807  0.47619050  0.49629630  1
  Ti  Ti7371  1  0.59523807  0.54761907  0.49629630  1
  Ti  Ti7372  1  0.59523807  0.61904764  0.49629630  1
  Ti  Ti7373  1  0.59523807  0.69047621  0.49629630  1
  Ti  Ti7374  1  0.59523807  0.76190479  0.49629630  1
  Ti  Ti7375  1  0.59523807  0.83333336  0.49629630  1
  Ti  Ti7376  1  0.59523807  0.90476193  0.49629630  1
  Ti  Ti7377  1  0.59523807  0.97619050  0.49629630  1
  Ti  Ti7378  1  0.66666664  0.04761907  0.49629630  1
  Ti  Ti7379  1  0.66666664  0.11904764  0.49629630  1
  Ti  Ti7380  1  0.66666664  0.19047621  0.49629630  1
  Ti  Ti7381  1  0.66666664  0.26190479  0.49629630  1
  Ti  Ti7382  1  0.66666664  0.33333336  0.49629630  1
  Ti  Ti7383  1  0.66666664  0.40476193  0.49629630  1
  Ti  Ti7384  1  0.66666664  0.47619050  0.49629630  1
  Ti  Ti7385  1  0.66666664  0.54761907  0.49629630  1
  Ti  Ti7386  1  0.66666664  0.61904764  0.49629630  1
  Ti  Ti7387  1  0.66666664  0.69047621  0.49629630  1
  Ti  Ti7388  1  0.66666664  0.76190479  0.49629630  1
  Ti  Ti7389  1  0.66666664  0.83333336  0.49629630  1
  Ti  Ti7390  1  0.66666664  0.90476193  0.49629630  1
  Ti  Ti7391  1  0.66666664  0.97619050  0.49629630  1
  Ti  Ti7392  1  0.73809521  0.04761907  0.49629630  1
  Ti  Ti7393  1  0.73809521  0.11904764  0.49629630  1
  Ti  Ti7394  1  0.73809521  0.19047621  0.49629630  1
  Ti  Ti7395  1  0.73809521  0.26190479  0.49629630  1
  Ti  Ti7396  1  0.73809521  0.33333336  0.49629630  1
  Ti  Ti7397  1  0.73809521  0.40476193  0.49629630  1
  Ti  Ti7398  1  0.73809521  0.47619050  0.49629630  1
  Ti  Ti7399  1  0.73809521  0.54761907  0.49629630  1
  Ti  Ti7400  1  0.73809521  0.61904764  0.49629630  1
  Ti  Ti7401  1  0.73809521  0.69047621  0.49629630  1
  Ti  Ti7402  1  0.73809521  0.76190479  0.49629630  1
  Ti  Ti7403  1  0.73809521  0.83333336  0.49629630  1
  Ti  Ti7404  1  0.73809521  0.90476193  0.49629630  1
  Ti  Ti7405  1  0.73809521  0.97619050  0.49629630  1
  Ti  Ti7406  1  0.80952379  0.04761907  0.49629630  1
  Ti  Ti7407  1  0.80952379  0.11904764  0.49629630  1
  Ti  Ti7408  1  0.80952379  0.19047621  0.49629630  1
  Ti  Ti7409  1  0.80952379  0.26190479  0.49629630  1
  Ti  Ti7410  1  0.80952379  0.33333336  0.49629630  1
  Ti  Ti7411  1  0.80952379  0.40476193  0.49629630  1
  Ti  Ti7412  1  0.80952379  0.47619050  0.49629630  1
  Ti  Ti7413  1  0.80952379  0.54761907  0.49629630  1
  Ti  Ti7414  1  0.80952379  0.61904764  0.49629630  1
  Ti  Ti7415  1  0.80952379  0.69047621  0.49629630  1
  Ti  Ti7416  1  0.80952379  0.76190479  0.49629630  1
  Ti  Ti7417  1  0.80952379  0.83333336  0.49629630  1
  Ti  Ti7418  1  0.80952379  0.90476193  0.49629630  1
  Ti  Ti7419  1  0.80952379  0.97619050  0.49629630  1
  Ti  Ti7420  1  0.88095236  0.04761907  0.49629630  1
  Ti  Ti7421  1  0.88095236  0.11904764  0.49629630  1
  Ti  Ti7422  1  0.88095236  0.19047621  0.49629630  1
  Ti  Ti7423  1  0.88095236  0.26190479  0.49629630  1
  Ti  Ti7424  1  0.88095236  0.33333336  0.49629630  1
  Ti  Ti7425  1  0.88095236  0.40476193  0.49629630  1
  Ti  Ti7426  1  0.88095236  0.47619050  0.49629630  1
  Ti  Ti7427  1  0.88095236  0.54761907  0.49629630  1
  Ti  Ti7428  1  0.88095236  0.61904764  0.49629630  1
  Ti  Ti7429  1  0.88095236  0.69047621  0.49629630  1
  Ti  Ti7430  1  0.88095236  0.76190479  0.49629630  1
  Ti  Ti7431  1  0.88095236  0.83333336  0.49629630  1
  Ti  Ti7432  1  0.88095236  0.90476193  0.49629630  1
  Ti  Ti7433  1  0.88095236  0.97619050  0.49629630  1
  Ti  Ti7434  1  0.95238093  0.04761907  0.49629630  1
  Ti  Ti7435  1  0.95238093  0.11904764  0.49629630  1
  Ti  Ti7436  1  0.95238093  0.19047621  0.49629630  1
  Ti  Ti7437  1  0.95238093  0.26190479  0.49629630  1
  Ti  Ti7438  1  0.95238093  0.33333336  0.49629630  1
  Ti  Ti7439  1  0.95238093  0.40476193  0.49629630  1
  Ti  Ti7440  1  0.95238093  0.47619050  0.49629630  1
  Ti  Ti7441  1  0.95238093  0.54761907  0.49629630  1
  Ti  Ti7442  1  0.95238093  0.61904764  0.49629630  1
  Ti  Ti7443  1  0.95238093  0.69047621  0.49629630  1
  Ti  Ti7444  1  0.95238093  0.76190479  0.49629630  1
  Ti  Ti7445  1  0.95238093  0.83333336  0.49629630  1
  Ti  Ti7446  1  0.95238093  0.90476193  0.49629630  1
  Ti  Ti7447  1  0.95238093  0.97619050  0.49629630  1
  Ti  Ti7448  1  0.04761907  0.02380950  0.49629630  1
  Ti  Ti7449  1  0.04761907  0.09523807  0.49629630  1
  Ti  Ti7450  1  0.04761907  0.16666664  0.49629630  1
  Ti  Ti7451  1  0.04761907  0.23809521  0.49629630  1
  Ti  Ti7452  1  0.04761907  0.30952379  0.49629630  1
  Ti  Ti7453  1  0.04761907  0.38095236  0.49629630  1
  Ti  Ti7454  1  0.04761907  0.45238093  0.49629630  1
  Ti  Ti7455  1  0.04761907  0.52380950  0.49629630  1
  Ti  Ti7456  1  0.04761907  0.59523807  0.49629630  1
  Ti  Ti7457  1  0.04761907  0.66666664  0.49629630  1
  Ti  Ti7458  1  0.04761907  0.73809521  0.49629630  1
  Ti  Ti7459  1  0.04761907  0.80952379  0.49629630  1
  Ti  Ti7460  1  0.04761907  0.88095236  0.49629630  1
  Ti  Ti7461  1  0.04761907  0.95238093  0.49629630  1
  Ti  Ti7462  1  0.11904764  0.02380950  0.49629630  1
  Ti  Ti7463  1  0.11904764  0.09523807  0.49629630  1
  Ti  Ti7464  1  0.11904764  0.16666664  0.49629630  1
  Ti  Ti7465  1  0.11904764  0.23809521  0.49629630  1
  Ti  Ti7466  1  0.11904764  0.30952379  0.49629630  1
  Ti  Ti7467  1  0.11904764  0.38095236  0.49629630  1
  Ti  Ti7468  1  0.11904764  0.45238093  0.49629630  1
  Ti  Ti7469  1  0.11904764  0.52380950  0.49629630  1
  Ti  Ti7470  1  0.11904764  0.59523807  0.49629630  1
  Ti  Ti7471  1  0.11904764  0.66666664  0.49629630  1
  Ti  Ti7472  1  0.11904764  0.73809521  0.49629630  1
  Ti  Ti7473  1  0.11904764  0.80952379  0.49629630  1
  Ti  Ti7474  1  0.11904764  0.88095236  0.49629630  1
  Ti  Ti7475  1  0.11904764  0.95238093  0.49629630  1
  Ti  Ti7476  1  0.19047621  0.02380950  0.49629630  1
  Ti  Ti7477  1  0.19047621  0.09523807  0.49629630  1
  Ti  Ti7478  1  0.19047621  0.16666664  0.49629630  1
  Ti  Ti7479  1  0.19047621  0.23809521  0.49629630  1
  Ti  Ti7480  1  0.19047621  0.30952379  0.49629630  1
  Ti  Ti7481  1  0.19047621  0.38095236  0.49629630  1
  Ti  Ti7482  1  0.19047621  0.45238093  0.49629630  1
  Ti  Ti7483  1  0.19047621  0.52380950  0.49629630  1
  Ti  Ti7484  1  0.19047621  0.59523807  0.49629630  1
  Ti  Ti7485  1  0.19047621  0.66666664  0.49629630  1
  Ti  Ti7486  1  0.19047621  0.73809521  0.49629630  1
  Ti  Ti7487  1  0.19047621  0.80952379  0.49629630  1
  Ti  Ti7488  1  0.19047621  0.88095236  0.49629630  1
  Ti  Ti7489  1  0.19047621  0.95238093  0.49629630  1
  Ti  Ti7490  1  0.26190479  0.02380950  0.49629630  1
  Ti  Ti7491  1  0.26190479  0.09523807  0.49629630  1
  Ti  Ti7492  1  0.26190479  0.16666664  0.49629630  1
  Ti  Ti7493  1  0.26190479  0.23809521  0.49629630  1
  Ti  Ti7494  1  0.26190479  0.30952379  0.49629630  1
  Ti  Ti7495  1  0.26190479  0.38095236  0.49629630  1
  Ti  Ti7496  1  0.26190479  0.45238093  0.49629630  1
  Ti  Ti7497  1  0.26190479  0.52380950  0.49629630  1
  Ti  Ti7498  1  0.26190479  0.59523807  0.49629630  1
  Ti  Ti7499  1  0.26190479  0.66666664  0.49629630  1
  Ti  Ti7500  1  0.26190479  0.73809521  0.49629630  1
  Ti  Ti7501  1  0.26190479  0.80952379  0.49629630  1
  Ti  Ti7502  1  0.26190479  0.88095236  0.49629630  1
  Ti  Ti7503  1  0.26190479  0.95238093  0.49629630  1
  Ti  Ti7504  1  0.33333336  0.02380950  0.49629630  1
  Ti  Ti7505  1  0.33333336  0.09523807  0.49629630  1
  Ti  Ti7506  1  0.33333336  0.16666664  0.49629630  1
  Ti  Ti7507  1  0.33333336  0.23809521  0.49629630  1
  Ti  Ti7508  1  0.33333336  0.30952379  0.49629630  1
  Ti  Ti7509  1  0.33333336  0.38095236  0.49629630  1
  Ti  Ti7510  1  0.33333336  0.45238093  0.49629630  1
  Ti  Ti7511  1  0.33333336  0.52380950  0.49629630  1
  Ti  Ti7512  1  0.33333336  0.59523807  0.49629630  1
  Ti  Ti7513  1  0.33333336  0.66666664  0.49629630  1
  Ti  Ti7514  1  0.33333336  0.73809521  0.49629630  1
  Ti  Ti7515  1  0.33333336  0.80952379  0.49629630  1
  Ti  Ti7516  1  0.33333336  0.88095236  0.49629630  1
  Ti  Ti7517  1  0.33333336  0.95238093  0.49629630  1
  Ti  Ti7518  1  0.40476193  0.02380950  0.49629630  1
  Ti  Ti7519  1  0.40476193  0.09523807  0.49629630  1
  Ti  Ti7520  1  0.40476193  0.16666664  0.49629630  1
  Ti  Ti7521  1  0.40476193  0.23809521  0.49629630  1
  Ti  Ti7522  1  0.40476193  0.30952379  0.49629630  1
  Ti  Ti7523  1  0.40476193  0.38095236  0.49629630  1
  Ti  Ti7524  1  0.40476193  0.45238093  0.49629630  1
  Ti  Ti7525  1  0.40476193  0.52380950  0.49629630  1
  Ti  Ti7526  1  0.40476193  0.59523807  0.49629630  1
  Ti  Ti7527  1  0.40476193  0.66666664  0.49629630  1
  Ti  Ti7528  1  0.40476193  0.73809521  0.49629630  1
  Ti  Ti7529  1  0.40476193  0.80952379  0.49629630  1
  Ti  Ti7530  1  0.40476193  0.88095236  0.49629630  1
  Ti  Ti7531  1  0.40476193  0.95238093  0.49629630  1
  Ti  Ti7532  1  0.47619050  0.02380950  0.49629630  1
  Ti  Ti7533  1  0.47619050  0.09523807  0.49629630  1
  Ti  Ti7534  1  0.47619050  0.16666664  0.49629630  1
  Ti  Ti7535  1  0.47619050  0.23809521  0.49629630  1
  Ti  Ti7536  1  0.47619050  0.30952379  0.49629630  1
  Ti  Ti7537  1  0.47619050  0.38095236  0.49629630  1
  Ti  Ti7538  1  0.47619050  0.45238093  0.49629630  1
  Ti  Ti7539  1  0.47619050  0.52380950  0.49629630  1
  Ti  Ti7540  1  0.47619050  0.59523807  0.49629630  1
  Ti  Ti7541  1  0.47619050  0.66666664  0.49629630  1
  Ti  Ti7542  1  0.47619050  0.73809521  0.49629630  1
  Ti  Ti7543  1  0.47619050  0.80952379  0.49629630  1
  Ti  Ti7544  1  0.47619050  0.88095236  0.49629630  1
  Ti  Ti7545  1  0.47619050  0.95238093  0.49629630  1
  Ti  Ti7546  1  0.54761907  0.02380950  0.49629630  1
  Ti  Ti7547  1  0.54761907  0.09523807  0.49629630  1
  Ti  Ti7548  1  0.54761907  0.16666664  0.49629630  1
  Ti  Ti7549  1  0.54761907  0.23809521  0.49629630  1
  Ti  Ti7550  1  0.54761907  0.30952379  0.49629630  1
  Ti  Ti7551  1  0.54761907  0.38095236  0.49629630  1
  Ti  Ti7552  1  0.54761907  0.45238093  0.49629630  1
  Ti  Ti7553  1  0.54761907  0.52380950  0.49629630  1
  Ti  Ti7554  1  0.54761907  0.59523807  0.49629630  1
  Ti  Ti7555  1  0.54761907  0.66666664  0.49629630  1
  Ti  Ti7556  1  0.54761907  0.73809521  0.49629630  1
  Ti  Ti7557  1  0.54761907  0.80952379  0.49629630  1
  Ti  Ti7558  1  0.54761907  0.88095236  0.49629630  1
  Ti  Ti7559  1  0.54761907  0.95238093  0.49629630  1
  Ti  Ti7560  1  0.61904764  0.02380950  0.49629630  1
  Ti  Ti7561  1  0.61904764  0.09523807  0.49629630  1
  Ti  Ti7562  1  0.61904764  0.16666664  0.49629630  1
  Ti  Ti7563  1  0.61904764  0.23809521  0.49629630  1
  Ti  Ti7564  1  0.61904764  0.30952379  0.49629630  1
  Ti  Ti7565  1  0.61904764  0.38095236  0.49629630  1
  Ti  Ti7566  1  0.61904764  0.45238093  0.49629630  1
  Ti  Ti7567  1  0.61904764  0.52380950  0.49629630  1
  Ti  Ti7568  1  0.61904764  0.59523807  0.49629630  1
  Ti  Ti7569  1  0.61904764  0.66666664  0.49629630  1
  Ti  Ti7570  1  0.61904764  0.73809521  0.49629630  1
  Ti  Ti7571  1  0.61904764  0.80952379  0.49629630  1
  Ti  Ti7572  1  0.61904764  0.88095236  0.49629630  1
  Ti  Ti7573  1  0.61904764  0.95238093  0.49629630  1
  Ti  Ti7574  1  0.69047621  0.02380950  0.49629630  1
  Ti  Ti7575  1  0.69047621  0.09523807  0.49629630  1
  Ti  Ti7576  1  0.69047621  0.16666664  0.49629630  1
  Ti  Ti7577  1  0.69047621  0.23809521  0.49629630  1
  Ti  Ti7578  1  0.69047621  0.30952379  0.49629630  1
  Ti  Ti7579  1  0.69047621  0.38095236  0.49629630  1
  Ti  Ti7580  1  0.69047621  0.45238093  0.49629630  1
  Ti  Ti7581  1  0.69047621  0.52380950  0.49629630  1
  Ti  Ti7582  1  0.69047621  0.59523807  0.49629630  1
  Ti  Ti7583  1  0.69047621  0.66666664  0.49629630  1
  Ti  Ti7584  1  0.69047621  0.73809521  0.49629630  1
  Ti  Ti7585  1  0.69047621  0.80952379  0.49629630  1
  Ti  Ti7586  1  0.69047621  0.88095236  0.49629630  1
  Ti  Ti7587  1  0.69047621  0.95238093  0.49629630  1
  Ti  Ti7588  1  0.76190479  0.02380950  0.49629630  1
  Ti  Ti7589  1  0.76190479  0.09523807  0.49629630  1
  Ti  Ti7590  1  0.76190479  0.16666664  0.49629630  1
  Ti  Ti7591  1  0.76190479  0.23809521  0.49629630  1
  Ti  Ti7592  1  0.76190479  0.30952379  0.49629630  1
  Ti  Ti7593  1  0.76190479  0.38095236  0.49629630  1
  Ti  Ti7594  1  0.76190479  0.45238093  0.49629630  1
  Ti  Ti7595  1  0.76190479  0.52380950  0.49629630  1
  Ti  Ti7596  1  0.76190479  0.59523807  0.49629630  1
  Ti  Ti7597  1  0.76190479  0.66666664  0.49629630  1
  Ti  Ti7598  1  0.76190479  0.73809521  0.49629630  1
  Ti  Ti7599  1  0.76190479  0.80952379  0.49629630  1
  Ti  Ti7600  1  0.76190479  0.88095236  0.49629630  1
  Ti  Ti7601  1  0.76190479  0.95238093  0.49629630  1
  Ti  Ti7602  1  0.83333336  0.02380950  0.49629630  1
  Ti  Ti7603  1  0.83333336  0.09523807  0.49629630  1
  Ti  Ti7604  1  0.83333336  0.16666664  0.49629630  1
  Ti  Ti7605  1  0.83333336  0.23809521  0.49629630  1
  Ti  Ti7606  1  0.83333336  0.30952379  0.49629630  1
  Ti  Ti7607  1  0.83333336  0.38095236  0.49629630  1
  Ti  Ti7608  1  0.83333336  0.45238093  0.49629630  1
  Ti  Ti7609  1  0.83333336  0.52380950  0.49629630  1
  Ti  Ti7610  1  0.83333336  0.59523807  0.49629630  1
  Ti  Ti7611  1  0.83333336  0.66666664  0.49629630  1
  Ti  Ti7612  1  0.83333336  0.73809521  0.49629630  1
  Ti  Ti7613  1  0.83333336  0.80952379  0.49629630  1
  Ti  Ti7614  1  0.83333336  0.88095236  0.49629630  1
  Ti  Ti7615  1  0.83333336  0.95238093  0.49629630  1
  Ti  Ti7616  1  0.90476193  0.02380950  0.49629630  1
  Ti  Ti7617  1  0.90476193  0.09523807  0.49629630  1
  Ti  Ti7618  1  0.90476193  0.16666664  0.49629630  1
  Ti  Ti7619  1  0.90476193  0.23809521  0.49629630  1
  Ti  Ti7620  1  0.90476193  0.30952379  0.49629630  1
  Ti  Ti7621  1  0.90476193  0.38095236  0.49629630  1
  Ti  Ti7622  1  0.90476193  0.45238093  0.49629630  1
  Ti  Ti7623  1  0.90476193  0.52380950  0.49629630  1
  Ti  Ti7624  1  0.90476193  0.59523807  0.49629630  1
  Ti  Ti7625  1  0.90476193  0.66666664  0.49629630  1
  Ti  Ti7626  1  0.90476193  0.73809521  0.49629630  1
  Ti  Ti7627  1  0.90476193  0.80952379  0.49629630  1
  Ti  Ti7628  1  0.90476193  0.88095236  0.49629630  1
  Ti  Ti7629  1  0.90476193  0.95238093  0.49629630  1
  Ti  Ti7630  1  0.97619050  0.02380950  0.49629630  1
  Ti  Ti7631  1  0.97619050  0.09523807  0.49629630  1
  Ti  Ti7632  1  0.97619050  0.16666664  0.49629630  1
  Ti  Ti7633  1  0.97619050  0.23809521  0.49629630  1
  Ti  Ti7634  1  0.97619050  0.30952379  0.49629630  1
  Ti  Ti7635  1  0.97619050  0.38095236  0.49629630  1
  Ti  Ti7636  1  0.97619050  0.45238093  0.49629630  1
  Ti  Ti7637  1  0.97619050  0.52380950  0.49629630  1
  Ti  Ti7638  1  0.97619050  0.59523807  0.49629630  1
  Ti  Ti7639  1  0.97619050  0.66666664  0.49629630  1
  Ti  Ti7640  1  0.97619050  0.73809521  0.49629630  1
  Ti  Ti7641  1  0.97619050  0.80952379  0.49629630  1
  Ti  Ti7642  1  0.97619050  0.88095236  0.49629630  1
  Ti  Ti7643  1  0.97619050  0.95238093  0.49629630  1
  Ti  Ti7644  1  0.00000000  0.00000000  0.52962963  1
  Ti  Ti7645  1  0.00000000  0.07142857  0.52962963  1
  Ti  Ti7646  1  0.00000000  0.14285714  0.52962963  1
  Ti  Ti7647  1  0.00000000  0.21428571  0.52962963  1
  Ti  Ti7648  1  0.00000000  0.28571429  0.52962963  1
  Ti  Ti7649  1  0.00000000  0.35714286  0.52962963  1
  Ti  Ti7650  1  0.00000000  0.42857143  0.52962963  1
  Ti  Ti7651  1  0.00000000  0.50000000  0.52962963  1
  Ti  Ti7652  1  0.00000000  0.57142857  0.52962963  1
  Ti  Ti7653  1  0.00000000  0.64285714  0.52962963  1
  Ti  Ti7654  1  0.00000000  0.71428571  0.52962963  1
  Ti  Ti7655  1  1.00000000  0.78571429  0.52962963  1
  Ti  Ti7656  1  0.00000000  0.85714286  0.52962963  1
  Ti  Ti7657  1  0.00000000  0.92857143  0.52962963  1
  Ti  Ti7658  1  0.07142857  0.00000000  0.52962963  1
  Ti  Ti7659  1  0.07142857  0.07142857  0.52962963  1
  Ti  Ti7660  1  0.07142857  0.14285714  0.52962963  1
  Ti  Ti7661  1  0.07142857  0.21428571  0.52962963  1
  Ti  Ti7662  1  0.07142857  0.28571429  0.52962963  1
  Ti  Ti7663  1  0.07142857  0.35714286  0.52962963  1
  Ti  Ti7664  1  0.07142857  0.42857143  0.52962963  1
  Ti  Ti7665  1  0.07142857  0.50000000  0.52962963  1
  Ti  Ti7666  1  0.07142857  0.57142857  0.52962963  1
  Ti  Ti7667  1  0.07142857  0.64285714  0.52962963  1
  Ti  Ti7668  1  0.07142857  0.71428571  0.52962963  1
  Ti  Ti7669  1  0.07142857  0.78571429  0.52962963  1
  Ti  Ti7670  1  0.07142857  0.85714286  0.52962963  1
  Ti  Ti7671  1  0.07142857  0.92857143  0.52962963  1
  Ti  Ti7672  1  0.14285714  0.00000000  0.52962963  1
  Ti  Ti7673  1  0.14285714  0.07142857  0.52962963  1
  Ti  Ti7674  1  0.14285714  0.14285714  0.52962963  1
  Ti  Ti7675  1  0.14285714  0.21428571  0.52962963  1
  Ti  Ti7676  1  0.14285714  0.28571429  0.52962963  1
  Ti  Ti7677  1  0.14285714  0.35714286  0.52962963  1
  Ti  Ti7678  1  0.14285714  0.42857143  0.52962963  1
  Ti  Ti7679  1  0.14285714  0.50000000  0.52962963  1
  Ti  Ti7680  1  0.14285714  0.57142857  0.52962963  1
  Ti  Ti7681  1  0.14285714  0.64285714  0.52962963  1
  Ti  Ti7682  1  0.14285714  0.71428571  0.52962963  1
  Ti  Ti7683  1  0.14285714  0.78571429  0.52962963  1
  Ti  Ti7684  1  0.14285714  0.85714286  0.52962963  1
  Ti  Ti7685  1  0.14285714  0.92857143  0.52962963  1
  Ti  Ti7686  1  0.21428571  0.00000000  0.52962963  1
  Ti  Ti7687  1  0.21428571  0.07142857  0.52962963  1
  Ti  Ti7688  1  0.21428571  0.14285714  0.52962963  1
  Ti  Ti7689  1  0.21428571  0.21428571  0.52962963  1
  Ti  Ti7690  1  0.21428571  0.28571429  0.52962963  1
  Ti  Ti7691  1  0.21428571  0.35714286  0.52962963  1
  Ti  Ti7692  1  0.21428571  0.42857143  0.52962963  1
  Ti  Ti7693  1  0.21428571  0.50000000  0.52962963  1
  Ti  Ti7694  1  0.21428571  0.57142857  0.52962963  1
  Ti  Ti7695  1  0.21428571  0.64285714  0.52962963  1
  Ti  Ti7696  1  0.21428571  0.71428571  0.52962963  1
  Ti  Ti7697  1  0.21428571  0.78571429  0.52962963  1
  Ti  Ti7698  1  0.21428571  0.85714286  0.52962963  1
  Ti  Ti7699  1  0.21428571  0.92857143  0.52962963  1
  Ti  Ti7700  1  0.28571429  0.00000000  0.52962963  1
  Ti  Ti7701  1  0.28571429  0.07142857  0.52962963  1
  Ti  Ti7702  1  0.28571429  0.14285714  0.52962963  1
  Ti  Ti7703  1  0.28571429  0.21428571  0.52962963  1
  Ti  Ti7704  1  0.28571429  0.28571429  0.52962963  1
  Ti  Ti7705  1  0.28571429  0.35714286  0.52962963  1
  Ti  Ti7706  1  0.28571429  0.42857143  0.52962963  1
  Ti  Ti7707  1  0.28571429  0.50000000  0.52962963  1
  Ti  Ti7708  1  0.28571429  0.57142857  0.52962963  1
  Ti  Ti7709  1  0.28571429  0.64285714  0.52962963  1
  Ti  Ti7710  1  0.28571429  0.71428571  0.52962963  1
  Ti  Ti7711  1  0.28571429  0.78571429  0.52962963  1
  Ti  Ti7712  1  0.28571429  0.85714286  0.52962963  1
  Ti  Ti7713  1  0.28571429  0.92857143  0.52962963  1
  Ti  Ti7714  1  0.35714286  0.00000000  0.52962963  1
  Ti  Ti7715  1  0.35714286  0.07142857  0.52962963  1
  Ti  Ti7716  1  0.35714286  0.14285714  0.52962963  1
  Ti  Ti7717  1  0.35714286  0.21428571  0.52962963  1
  Ti  Ti7718  1  0.35714286  0.28571429  0.52962963  1
  Ti  Ti7719  1  0.35714286  0.35714286  0.52962963  1
  Ti  Ti7720  1  0.35714286  0.42857143  0.52962963  1
  Ti  Ti7721  1  0.35714286  0.50000000  0.52962963  1
  Ti  Ti7722  1  0.35714286  0.57142857  0.52962963  1
  Ti  Ti7723  1  0.35714286  0.64285714  0.52962963  1
  Ti  Ti7724  1  0.35714286  0.71428571  0.52962963  1
  Ti  Ti7725  1  0.35714286  0.78571429  0.52962963  1
  Ti  Ti7726  1  0.35714286  0.85714286  0.52962963  1
  Ti  Ti7727  1  0.35714286  0.92857143  0.52962963  1
  Ti  Ti7728  1  0.42857143  0.00000000  0.52962963  1
  Ti  Ti7729  1  0.42857143  0.07142857  0.52962963  1
  Ti  Ti7730  1  0.42857143  0.14285714  0.52962963  1
  Ti  Ti7731  1  0.42857143  0.21428571  0.52962963  1
  Ti  Ti7732  1  0.42857143  0.28571429  0.52962963  1
  Ti  Ti7733  1  0.42857143  0.35714286  0.52962963  1
  Ti  Ti7734  1  0.42857143  0.42857143  0.52962963  1
  Ti  Ti7735  1  0.42857143  0.50000000  0.52962963  1
  Ti  Ti7736  1  0.42857143  0.57142857  0.52962963  1
  Ti  Ti7737  1  0.42857143  0.64285714  0.52962963  1
  Ti  Ti7738  1  0.42857143  0.71428571  0.52962963  1
  Ti  Ti7739  1  0.42857143  0.78571429  0.52962963  1
  Ti  Ti7740  1  0.42857143  0.85714286  0.52962963  1
  Ti  Ti7741  1  0.42857143  0.92857143  0.52962963  1
  Ti  Ti7742  1  0.50000000  0.00000000  0.52962963  1
  Ti  Ti7743  1  0.50000000  0.07142857  0.52962963  1
  Ti  Ti7744  1  0.50000000  0.14285714  0.52962963  1
  Ti  Ti7745  1  0.50000000  0.21428571  0.52962963  1
  Ti  Ti7746  1  0.50000000  0.28571429  0.52962963  1
  Ti  Ti7747  1  0.50000000  0.35714286  0.52962963  1
  Ti  Ti7748  1  0.50000000  0.42857143  0.52962963  1
  Ti  Ti7749  1  0.50000000  0.50000000  0.52962963  1
  Ti  Ti7750  1  0.50000000  0.57142857  0.52962963  1
  Ti  Ti7751  1  0.50000000  0.64285714  0.52962963  1
  Ti  Ti7752  1  0.50000000  0.71428571  0.52962963  1
  Ti  Ti7753  1  0.50000000  0.78571429  0.52962963  1
  Ti  Ti7754  1  0.50000000  0.85714286  0.52962963  1
  Ti  Ti7755  1  0.50000000  0.92857143  0.52962963  1
  Ti  Ti7756  1  0.57142857  0.00000000  0.52962963  1
  Ti  Ti7757  1  0.57142857  0.07142857  0.52962963  1
  Ti  Ti7758  1  0.57142857  0.14285714  0.52962963  1
  Ti  Ti7759  1  0.57142857  0.21428571  0.52962963  1
  Ti  Ti7760  1  0.57142857  0.28571429  0.52962963  1
  Ti  Ti7761  1  0.57142857  0.35714286  0.52962963  1
  Ti  Ti7762  1  0.57142857  0.42857143  0.52962963  1
  Ti  Ti7763  1  0.57142857  0.50000000  0.52962963  1
  Ti  Ti7764  1  0.57142857  0.57142857  0.52962963  1
  Ti  Ti7765  1  0.57142857  0.64285714  0.52962963  1
  Ti  Ti7766  1  0.57142857  0.71428571  0.52962963  1
  Ti  Ti7767  1  0.57142857  0.78571429  0.52962963  1
  Ti  Ti7768  1  0.57142857  0.85714286  0.52962963  1
  Ti  Ti7769  1  0.57142857  0.92857143  0.52962963  1
  Ti  Ti7770  1  0.64285714  0.00000000  0.52962963  1
  Ti  Ti7771  1  0.64285714  0.07142857  0.52962963  1
  Ti  Ti7772  1  0.64285714  0.14285714  0.52962963  1
  Ti  Ti7773  1  0.64285714  0.21428571  0.52962963  1
  Ti  Ti7774  1  0.64285714  0.28571429  0.52962963  1
  Ti  Ti7775  1  0.64285714  0.35714286  0.52962963  1
  Ti  Ti7776  1  0.64285714  0.42857143  0.52962963  1
  Ti  Ti7777  1  0.64285714  0.50000000  0.52962963  1
  Ti  Ti7778  1  0.64285714  0.57142857  0.52962963  1
  Ti  Ti7779  1  0.64285714  0.64285714  0.52962963  1
  Ti  Ti7780  1  0.64285714  0.71428571  0.52962963  1
  Ti  Ti7781  1  0.64285714  0.78571429  0.52962963  1
  Ti  Ti7782  1  0.64285714  0.85714286  0.52962963  1
  Ti  Ti7783  1  0.64285714  0.92857143  0.52962963  1
  Ti  Ti7784  1  0.71428571  0.00000000  0.52962963  1
  Ti  Ti7785  1  0.71428571  0.07142857  0.52962963  1
  Ti  Ti7786  1  0.71428571  0.14285714  0.52962963  1
  Ti  Ti7787  1  0.71428571  0.21428571  0.52962963  1
  Ti  Ti7788  1  0.71428571  0.28571429  0.52962963  1
  Ti  Ti7789  1  0.71428571  0.35714286  0.52962963  1
  Ti  Ti7790  1  0.71428571  0.42857143  0.52962963  1
  Ti  Ti7791  1  0.71428571  0.50000000  0.52962963  1
  Ti  Ti7792  1  0.71428571  0.57142857  0.52962963  1
  Ti  Ti7793  1  0.71428571  0.64285714  0.52962963  1
  Ti  Ti7794  1  0.71428571  0.71428571  0.52962963  1
  Ti  Ti7795  1  0.71428571  0.78571429  0.52962963  1
  Ti  Ti7796  1  0.71428571  0.85714286  0.52962963  1
  Ti  Ti7797  1  0.71428571  0.92857143  0.52962963  1
  Ti  Ti7798  1  0.78571429  0.00000000  0.52962963  1
  Ti  Ti7799  1  0.78571429  0.07142857  0.52962963  1
  Ti  Ti7800  1  0.78571429  0.14285714  0.52962963  1
  Ti  Ti7801  1  0.78571429  0.21428571  0.52962963  1
  Ti  Ti7802  1  0.78571429  0.28571429  0.52962963  1
  Ti  Ti7803  1  0.78571429  0.35714286  0.52962963  1
  Ti  Ti7804  1  0.78571429  0.42857143  0.52962963  1
  Ti  Ti7805  1  0.78571429  0.50000000  0.52962963  1
  Ti  Ti7806  1  0.78571429  0.57142857  0.52962963  1
  Ti  Ti7807  1  0.78571429  0.64285714  0.52962963  1
  Ti  Ti7808  1  0.78571429  0.71428571  0.52962963  1
  Ti  Ti7809  1  0.78571429  0.78571429  0.52962963  1
  Ti  Ti7810  1  0.78571429  0.85714286  0.52962963  1
  Ti  Ti7811  1  0.78571429  0.92857143  0.52962963  1
  Ti  Ti7812  1  0.85714286  0.00000000  0.52962963  1
  Ti  Ti7813  1  0.85714286  0.07142857  0.52962963  1
  Ti  Ti7814  1  0.85714286  0.14285714  0.52962963  1
  Ti  Ti7815  1  0.85714286  0.21428571  0.52962963  1
  Ti  Ti7816  1  0.85714286  0.28571429  0.52962963  1
  Ti  Ti7817  1  0.85714286  0.35714286  0.52962963  1
  Ti  Ti7818  1  0.85714286  0.42857143  0.52962963  1
  Ti  Ti7819  1  0.85714286  0.50000000  0.52962963  1
  Ti  Ti7820  1  0.85714286  0.57142857  0.52962963  1
  Ti  Ti7821  1  0.85714286  0.64285714  0.52962963  1
  Ti  Ti7822  1  0.85714286  0.71428571  0.52962963  1
  Ti  Ti7823  1  0.85714286  0.78571429  0.52962963  1
  Ti  Ti7824  1  0.85714286  0.85714286  0.52962963  1
  Ti  Ti7825  1  0.85714286  0.92857143  0.52962963  1
  Ti  Ti7826  1  0.92857143  0.00000000  0.52962963  1
  Ti  Ti7827  1  0.92857143  0.07142857  0.52962963  1
  Ti  Ti7828  1  0.92857143  0.14285714  0.52962963  1
  Ti  Ti7829  1  0.92857143  0.21428571  0.52962963  1
  Ti  Ti7830  1  0.92857143  0.28571429  0.52962963  1
  Ti  Ti7831  1  0.92857143  0.35714286  0.52962963  1
  Ti  Ti7832  1  0.92857143  0.42857143  0.52962963  1
  Ti  Ti7833  1  0.92857143  0.50000000  0.52962963  1
  Ti  Ti7834  1  0.92857143  0.57142857  0.52962963  1
  Ti  Ti7835  1  0.92857143  0.64285714  0.52962963  1
  Ti  Ti7836  1  0.92857143  0.71428571  0.52962963  1
  Ti  Ti7837  1  0.92857143  0.78571429  0.52962963  1
  Ti  Ti7838  1  0.92857143  0.85714286  0.52962963  1
  Ti  Ti7839  1  0.92857143  0.92857143  0.52962963  1
  Ti  Ti7840  1  0.02380950  0.04761907  0.51851852  1
  Ti  Ti7841  1  0.02380950  0.11904764  0.51851852  1
  Ti  Ti7842  1  0.02380950  0.19047621  0.51851852  1
  Ti  Ti7843  1  0.02380950  0.26190479  0.51851852  1
  Ti  Ti7844  1  0.02380950  0.33333336  0.51851852  1
  Ti  Ti7845  1  0.02380950  0.40476193  0.51851852  1
  Ti  Ti7846  1  0.02380950  0.47619050  0.51851852  1
  Ti  Ti7847  1  0.02380950  0.54761907  0.51851852  1
  Ti  Ti7848  1  0.02380950  0.61904764  0.51851852  1
  Ti  Ti7849  1  0.02380950  0.69047621  0.51851852  1
  Ti  Ti7850  1  0.02380950  0.76190479  0.51851852  1
  Ti  Ti7851  1  0.02380950  0.83333336  0.51851852  1
  Ti  Ti7852  1  0.02380950  0.90476193  0.51851852  1
  Ti  Ti7853  1  0.02380950  0.97619050  0.51851852  1
  Ti  Ti7854  1  0.09523807  0.04761907  0.51851852  1
  Ti  Ti7855  1  0.09523807  0.11904764  0.51851852  1
  Ti  Ti7856  1  0.09523807  0.19047621  0.51851852  1
  Ti  Ti7857  1  0.09523807  0.26190479  0.51851852  1
  Ti  Ti7858  1  0.09523807  0.33333336  0.51851852  1
  Ti  Ti7859  1  0.09523807  0.40476193  0.51851852  1
  Ti  Ti7860  1  0.09523807  0.47619050  0.51851852  1
  Ti  Ti7861  1  0.09523807  0.54761907  0.51851852  1
  Ti  Ti7862  1  0.09523807  0.61904764  0.51851852  1
  Ti  Ti7863  1  0.09523807  0.69047621  0.51851852  1
  Ti  Ti7864  1  0.09523807  0.76190479  0.51851852  1
  Ti  Ti7865  1  0.09523807  0.83333336  0.51851852  1
  Ti  Ti7866  1  0.09523807  0.90476193  0.51851852  1
  Ti  Ti7867  1  0.09523807  0.97619050  0.51851852  1
  Ti  Ti7868  1  0.16666664  0.04761907  0.51851852  1
  Ti  Ti7869  1  0.16666664  0.11904764  0.51851852  1
  Ti  Ti7870  1  0.16666664  0.19047621  0.51851852  1
  Ti  Ti7871  1  0.16666664  0.26190479  0.51851852  1
  Ti  Ti7872  1  0.16666664  0.33333336  0.51851852  1
  Ti  Ti7873  1  0.16666664  0.40476193  0.51851852  1
  Ti  Ti7874  1  0.16666664  0.47619050  0.51851852  1
  Ti  Ti7875  1  0.16666664  0.54761907  0.51851852  1
  Ti  Ti7876  1  0.16666664  0.61904764  0.51851852  1
  Ti  Ti7877  1  0.16666664  0.69047621  0.51851852  1
  Ti  Ti7878  1  0.16666664  0.76190479  0.51851852  1
  Ti  Ti7879  1  0.16666664  0.83333336  0.51851852  1
  Ti  Ti7880  1  0.16666664  0.90476193  0.51851852  1
  Ti  Ti7881  1  0.16666664  0.97619050  0.51851852  1
  Ti  Ti7882  1  0.23809521  0.04761907  0.51851852  1
  Ti  Ti7883  1  0.23809521  0.11904764  0.51851852  1
  Ti  Ti7884  1  0.23809521  0.19047621  0.51851852  1
  Ti  Ti7885  1  0.23809521  0.26190479  0.51851852  1
  Ti  Ti7886  1  0.23809521  0.33333336  0.51851852  1
  Ti  Ti7887  1  0.23809521  0.40476193  0.51851852  1
  Ti  Ti7888  1  0.23809521  0.47619050  0.51851852  1
  Ti  Ti7889  1  0.23809521  0.54761907  0.51851852  1
  Ti  Ti7890  1  0.23809521  0.61904764  0.51851852  1
  Ti  Ti7891  1  0.23809521  0.69047621  0.51851852  1
  Ti  Ti7892  1  0.23809521  0.76190479  0.51851852  1
  Ti  Ti7893  1  0.23809521  0.83333336  0.51851852  1
  Ti  Ti7894  1  0.23809521  0.90476193  0.51851852  1
  Ti  Ti7895  1  0.23809521  0.97619050  0.51851852  1
  Ti  Ti7896  1  0.30952379  0.04761907  0.51851852  1
  Ti  Ti7897  1  0.30952379  0.11904764  0.51851852  1
  Ti  Ti7898  1  0.30952379  0.19047621  0.51851852  1
  Ti  Ti7899  1  0.30952379  0.26190479  0.51851852  1
  Ti  Ti7900  1  0.30952379  0.33333336  0.51851852  1
  Ti  Ti7901  1  0.30952379  0.40476193  0.51851852  1
  Ti  Ti7902  1  0.30952379  0.47619050  0.51851852  1
  Ti  Ti7903  1  0.30952379  0.54761907  0.51851852  1
  Ti  Ti7904  1  0.30952379  0.61904764  0.51851852  1
  Ti  Ti7905  1  0.30952379  0.69047621  0.51851852  1
  Ti  Ti7906  1  0.30952379  0.76190479  0.51851852  1
  Ti  Ti7907  1  0.30952379  0.83333336  0.51851852  1
  Ti  Ti7908  1  0.30952379  0.90476193  0.51851852  1
  Ti  Ti7909  1  0.30952379  0.97619050  0.51851852  1
  Ti  Ti7910  1  0.38095236  0.04761907  0.51851852  1
  Ti  Ti7911  1  0.38095236  0.11904764  0.51851852  1
  Ti  Ti7912  1  0.38095236  0.19047621  0.51851852  1
  Ti  Ti7913  1  0.38095236  0.26190479  0.51851852  1
  Ti  Ti7914  1  0.38095236  0.33333336  0.51851852  1
  Ti  Ti7915  1  0.38095236  0.40476193  0.51851852  1
  Ti  Ti7916  1  0.38095236  0.47619050  0.51851852  1
  Ti  Ti7917  1  0.38095236  0.54761907  0.51851852  1
  Ti  Ti7918  1  0.38095236  0.61904764  0.51851852  1
  Ti  Ti7919  1  0.38095236  0.69047621  0.51851852  1
  Ti  Ti7920  1  0.38095236  0.76190479  0.51851852  1
  Ti  Ti7921  1  0.38095236  0.83333336  0.51851852  1
  Ti  Ti7922  1  0.38095236  0.90476193  0.51851852  1
  Ti  Ti7923  1  0.38095236  0.97619050  0.51851852  1
  Ti  Ti7924  1  0.45238093  0.04761907  0.51851852  1
  Ti  Ti7925  1  0.45238093  0.11904764  0.51851852  1
  Ti  Ti7926  1  0.45238093  0.19047621  0.51851852  1
  Ti  Ti7927  1  0.45238093  0.26190479  0.51851852  1
  Ti  Ti7928  1  0.45238093  0.33333336  0.51851852  1
  Ti  Ti7929  1  0.45238093  0.40476193  0.51851852  1
  Ti  Ti7930  1  0.45238093  0.47619050  0.51851852  1
  Ti  Ti7931  1  0.45238093  0.54761907  0.51851852  1
  Ti  Ti7932  1  0.45238093  0.61904764  0.51851852  1
  Ti  Ti7933  1  0.45238093  0.69047621  0.51851852  1
  Ti  Ti7934  1  0.45238093  0.76190479  0.51851852  1
  Ti  Ti7935  1  0.45238093  0.83333336  0.51851852  1
  Ti  Ti7936  1  0.45238093  0.90476193  0.51851852  1
  Ti  Ti7937  1  0.45238093  0.97619050  0.51851852  1
  Ti  Ti7938  1  0.52380950  0.04761907  0.51851852  1
  Ti  Ti7939  1  0.52380950  0.11904764  0.51851852  1
  Ti  Ti7940  1  0.52380950  0.19047621  0.51851852  1
  Ti  Ti7941  1  0.52380950  0.26190479  0.51851852  1
  Ti  Ti7942  1  0.52380950  0.33333336  0.51851852  1
  Ti  Ti7943  1  0.52380950  0.40476193  0.51851852  1
  Ti  Ti7944  1  0.52380950  0.47619050  0.51851852  1
  Ti  Ti7945  1  0.52380950  0.54761907  0.51851852  1
  Ti  Ti7946  1  0.52380950  0.61904764  0.51851852  1
  Ti  Ti7947  1  0.52380950  0.69047621  0.51851852  1
  Ti  Ti7948  1  0.52380950  0.76190479  0.51851852  1
  Ti  Ti7949  1  0.52380950  0.83333336  0.51851852  1
  Ti  Ti7950  1  0.52380950  0.90476193  0.51851852  1
  Ti  Ti7951  1  0.52380950  0.97619050  0.51851852  1
  Ti  Ti7952  1  0.59523807  0.04761907  0.51851852  1
  Ti  Ti7953  1  0.59523807  0.11904764  0.51851852  1
  Ti  Ti7954  1  0.59523807  0.19047621  0.51851852  1
  Ti  Ti7955  1  0.59523807  0.26190479  0.51851852  1
  Ti  Ti7956  1  0.59523807  0.33333336  0.51851852  1
  Ti  Ti7957  1  0.59523807  0.40476193  0.51851852  1
  Ti  Ti7958  1  0.59523807  0.47619050  0.51851852  1
  Ti  Ti7959  1  0.59523807  0.54761907  0.51851852  1
  Ti  Ti7960  1  0.59523807  0.61904764  0.51851852  1
  Ti  Ti7961  1  0.59523807  0.69047621  0.51851852  1
  Ti  Ti7962  1  0.59523807  0.76190479  0.51851852  1
  Ti  Ti7963  1  0.59523807  0.83333336  0.51851852  1
  Ti  Ti7964  1  0.59523807  0.90476193  0.51851852  1
  Ti  Ti7965  1  0.59523807  0.97619050  0.51851852  1
  Ti  Ti7966  1  0.66666664  0.04761907  0.51851852  1
  Ti  Ti7967  1  0.66666664  0.11904764  0.51851852  1
  Ti  Ti7968  1  0.66666664  0.19047621  0.51851852  1
  Ti  Ti7969  1  0.66666664  0.26190479  0.51851852  1
  Ti  Ti7970  1  0.66666664  0.33333336  0.51851852  1
  Ti  Ti7971  1  0.66666664  0.40476193  0.51851852  1
  Ti  Ti7972  1  0.66666664  0.47619050  0.51851852  1
  Ti  Ti7973  1  0.66666664  0.54761907  0.51851852  1
  Ti  Ti7974  1  0.66666664  0.61904764  0.51851852  1
  Ti  Ti7975  1  0.66666664  0.69047621  0.51851852  1
  Ti  Ti7976  1  0.66666664  0.76190479  0.51851852  1
  Ti  Ti7977  1  0.66666664  0.83333336  0.51851852  1
  Ti  Ti7978  1  0.66666664  0.90476193  0.51851852  1
  Ti  Ti7979  1  0.66666664  0.97619050  0.51851852  1
  Ti  Ti7980  1  0.73809521  0.04761907  0.51851852  1
  Ti  Ti7981  1  0.73809521  0.11904764  0.51851852  1
  Ti  Ti7982  1  0.73809521  0.19047621  0.51851852  1
  Ti  Ti7983  1  0.73809521  0.26190479  0.51851852  1
  Ti  Ti7984  1  0.73809521  0.33333336  0.51851852  1
  Ti  Ti7985  1  0.73809521  0.40476193  0.51851852  1
  Ti  Ti7986  1  0.73809521  0.47619050  0.51851852  1
  Ti  Ti7987  1  0.73809521  0.54761907  0.51851852  1
  Ti  Ti7988  1  0.73809521  0.61904764  0.51851852  1
  Ti  Ti7989  1  0.73809521  0.69047621  0.51851852  1
  Ti  Ti7990  1  0.73809521  0.76190479  0.51851852  1
  Ti  Ti7991  1  0.73809521  0.83333336  0.51851852  1
  Ti  Ti7992  1  0.73809521  0.90476193  0.51851852  1
  Ti  Ti7993  1  0.73809521  0.97619050  0.51851852  1
  Ti  Ti7994  1  0.80952379  0.04761907  0.51851852  1
  Ti  Ti7995  1  0.80952379  0.11904764  0.51851852  1
  Ti  Ti7996  1  0.80952379  0.19047621  0.51851852  1
  Ti  Ti7997  1  0.80952379  0.26190479  0.51851852  1
  Ti  Ti7998  1  0.80952379  0.33333336  0.51851852  1
  Ti  Ti7999  1  0.80952379  0.40476193  0.51851852  1
  Ti  Ti8000  1  0.80952379  0.47619050  0.51851852  1
  Ti  Ti8001  1  0.80952379  0.54761907  0.51851852  1
  Ti  Ti8002  1  0.80952379  0.61904764  0.51851852  1
  Ti  Ti8003  1  0.80952379  0.69047621  0.51851852  1
  Ti  Ti8004  1  0.80952379  0.76190479  0.51851852  1
  Ti  Ti8005  1  0.80952379  0.83333336  0.51851852  1
  Ti  Ti8006  1  0.80952379  0.90476193  0.51851852  1
  Ti  Ti8007  1  0.80952379  0.97619050  0.51851852  1
  Ti  Ti8008  1  0.88095236  0.04761907  0.51851852  1
  Ti  Ti8009  1  0.88095236  0.11904764  0.51851852  1
  Ti  Ti8010  1  0.88095236  0.19047621  0.51851852  1
  Ti  Ti8011  1  0.88095236  0.26190479  0.51851852  1
  Ti  Ti8012  1  0.88095236  0.33333336  0.51851852  1
  Ti  Ti8013  1  0.88095236  0.40476193  0.51851852  1
  Ti  Ti8014  1  0.88095236  0.47619050  0.51851852  1
  Ti  Ti8015  1  0.88095236  0.54761907  0.51851852  1
  Ti  Ti8016  1  0.88095236  0.61904764  0.51851852  1
  Ti  Ti8017  1  0.88095236  0.69047621  0.51851852  1
  Ti  Ti8018  1  0.88095236  0.76190479  0.51851852  1
  Ti  Ti8019  1  0.88095236  0.83333336  0.51851852  1
  Ti  Ti8020  1  0.88095236  0.90476193  0.51851852  1
  Ti  Ti8021  1  0.88095236  0.97619050  0.51851852  1
  Ti  Ti8022  1  0.95238093  0.04761907  0.51851852  1
  Ti  Ti8023  1  0.95238093  0.11904764  0.51851852  1
  Ti  Ti8024  1  0.95238093  0.19047621  0.51851852  1
  Ti  Ti8025  1  0.95238093  0.26190479  0.51851852  1
  Ti  Ti8026  1  0.95238093  0.33333336  0.51851852  1
  Ti  Ti8027  1  0.95238093  0.40476193  0.51851852  1
  Ti  Ti8028  1  0.95238093  0.47619050  0.51851852  1
  Ti  Ti8029  1  0.95238093  0.54761907  0.51851852  1
  Ti  Ti8030  1  0.95238093  0.61904764  0.51851852  1
  Ti  Ti8031  1  0.95238093  0.69047621  0.51851852  1
  Ti  Ti8032  1  0.95238093  0.76190479  0.51851852  1
  Ti  Ti8033  1  0.95238093  0.83333336  0.51851852  1
  Ti  Ti8034  1  0.95238093  0.90476193  0.51851852  1
  Ti  Ti8035  1  0.95238093  0.97619050  0.51851852  1
  Ti  Ti8036  1  0.04761907  0.02380950  0.51851852  1
  Ti  Ti8037  1  0.04761907  0.09523807  0.51851852  1
  Ti  Ti8038  1  0.04761907  0.16666664  0.51851852  1
  Ti  Ti8039  1  0.04761907  0.23809521  0.51851852  1
  Ti  Ti8040  1  0.04761907  0.30952379  0.51851852  1
  Ti  Ti8041  1  0.04761907  0.38095236  0.51851852  1
  Ti  Ti8042  1  0.04761907  0.45238093  0.51851852  1
  Ti  Ti8043  1  0.04761907  0.52380950  0.51851852  1
  Ti  Ti8044  1  0.04761907  0.59523807  0.51851852  1
  Ti  Ti8045  1  0.04761907  0.66666664  0.51851852  1
  Ti  Ti8046  1  0.04761907  0.73809521  0.51851852  1
  Ti  Ti8047  1  0.04761907  0.80952379  0.51851852  1
  Ti  Ti8048  1  0.04761907  0.88095236  0.51851852  1
  Ti  Ti8049  1  0.04761907  0.95238093  0.51851852  1
  Ti  Ti8050  1  0.11904764  0.02380950  0.51851852  1
  Ti  Ti8051  1  0.11904764  0.09523807  0.51851852  1
  Ti  Ti8052  1  0.11904764  0.16666664  0.51851852  1
  Ti  Ti8053  1  0.11904764  0.23809521  0.51851852  1
  Ti  Ti8054  1  0.11904764  0.30952379  0.51851852  1
  Ti  Ti8055  1  0.11904764  0.38095236  0.51851852  1
  Ti  Ti8056  1  0.11904764  0.45238093  0.51851852  1
  Ti  Ti8057  1  0.11904764  0.52380950  0.51851852  1
  Ti  Ti8058  1  0.11904764  0.59523807  0.51851852  1
  Ti  Ti8059  1  0.11904764  0.66666664  0.51851852  1
  Ti  Ti8060  1  0.11904764  0.73809521  0.51851852  1
  Ti  Ti8061  1  0.11904764  0.80952379  0.51851852  1
  Ti  Ti8062  1  0.11904764  0.88095236  0.51851852  1
  Ti  Ti8063  1  0.11904764  0.95238093  0.51851852  1
  Ti  Ti8064  1  0.19047621  0.02380950  0.51851852  1
  Ti  Ti8065  1  0.19047621  0.09523807  0.51851852  1
  Ti  Ti8066  1  0.19047621  0.16666664  0.51851852  1
  Ti  Ti8067  1  0.19047621  0.23809521  0.51851852  1
  Ti  Ti8068  1  0.19047621  0.30952379  0.51851852  1
  Ti  Ti8069  1  0.19047621  0.38095236  0.51851852  1
  Ti  Ti8070  1  0.19047621  0.45238093  0.51851852  1
  Ti  Ti8071  1  0.19047621  0.52380950  0.51851852  1
  Ti  Ti8072  1  0.19047621  0.59523807  0.51851852  1
  Ti  Ti8073  1  0.19047621  0.66666664  0.51851852  1
  Ti  Ti8074  1  0.19047621  0.73809521  0.51851852  1
  Ti  Ti8075  1  0.19047621  0.80952379  0.51851852  1
  Ti  Ti8076  1  0.19047621  0.88095236  0.51851852  1
  Ti  Ti8077  1  0.19047621  0.95238093  0.51851852  1
  Ti  Ti8078  1  0.26190479  0.02380950  0.51851852  1
  Ti  Ti8079  1  0.26190479  0.09523807  0.51851852  1
  Ti  Ti8080  1  0.26190479  0.16666664  0.51851852  1
  Ti  Ti8081  1  0.26190479  0.23809521  0.51851852  1
  Ti  Ti8082  1  0.26190479  0.30952379  0.51851852  1
  Ti  Ti8083  1  0.26190479  0.38095236  0.51851852  1
  Ti  Ti8084  1  0.26190479  0.45238093  0.51851852  1
  Ti  Ti8085  1  0.26190479  0.52380950  0.51851852  1
  Ti  Ti8086  1  0.26190479  0.59523807  0.51851852  1
  Ti  Ti8087  1  0.26190479  0.66666664  0.51851852  1
  Ti  Ti8088  1  0.26190479  0.73809521  0.51851852  1
  Ti  Ti8089  1  0.26190479  0.80952379  0.51851852  1
  Ti  Ti8090  1  0.26190479  0.88095236  0.51851852  1
  Ti  Ti8091  1  0.26190479  0.95238093  0.51851852  1
  Ti  Ti8092  1  0.33333336  0.02380950  0.51851852  1
  Ti  Ti8093  1  0.33333336  0.09523807  0.51851852  1
  Ti  Ti8094  1  0.33333336  0.16666664  0.51851852  1
  Ti  Ti8095  1  0.33333336  0.23809521  0.51851852  1
  Ti  Ti8096  1  0.33333336  0.30952379  0.51851852  1
  Ti  Ti8097  1  0.33333336  0.38095236  0.51851852  1
  Ti  Ti8098  1  0.33333336  0.45238093  0.51851852  1
  Ti  Ti8099  1  0.33333336  0.52380950  0.51851852  1
  Ti  Ti8100  1  0.33333336  0.59523807  0.51851852  1
  Ti  Ti8101  1  0.33333336  0.66666664  0.51851852  1
  Ti  Ti8102  1  0.33333336  0.73809521  0.51851852  1
  Ti  Ti8103  1  0.33333336  0.80952379  0.51851852  1
  Ti  Ti8104  1  0.33333336  0.88095236  0.51851852  1
  Ti  Ti8105  1  0.33333336  0.95238093  0.51851852  1
  Ti  Ti8106  1  0.40476193  0.02380950  0.51851852  1
  Ti  Ti8107  1  0.40476193  0.09523807  0.51851852  1
  Ti  Ti8108  1  0.40476193  0.16666664  0.51851852  1
  Ti  Ti8109  1  0.40476193  0.23809521  0.51851852  1
  Ti  Ti8110  1  0.40476193  0.30952379  0.51851852  1
  Ti  Ti8111  1  0.40476193  0.38095236  0.51851852  1
  Ti  Ti8112  1  0.40476193  0.45238093  0.51851852  1
  Ti  Ti8113  1  0.40476193  0.52380950  0.51851852  1
  Ti  Ti8114  1  0.40476193  0.59523807  0.51851852  1
  Ti  Ti8115  1  0.40476193  0.66666664  0.51851852  1
  Ti  Ti8116  1  0.40476193  0.73809521  0.51851852  1
  Ti  Ti8117  1  0.40476193  0.80952379  0.51851852  1
  Ti  Ti8118  1  0.40476193  0.88095236  0.51851852  1
  Ti  Ti8119  1  0.40476193  0.95238093  0.51851852  1
  Ti  Ti8120  1  0.47619050  0.02380950  0.51851852  1
  Ti  Ti8121  1  0.47619050  0.09523807  0.51851852  1
  Ti  Ti8122  1  0.47619050  0.16666664  0.51851852  1
  Ti  Ti8123  1  0.47619050  0.23809521  0.51851852  1
  Ti  Ti8124  1  0.47619050  0.30952379  0.51851852  1
  Ti  Ti8125  1  0.47619050  0.38095236  0.51851852  1
  Ti  Ti8126  1  0.47619050  0.45238093  0.51851852  1
  Ti  Ti8127  1  0.47619050  0.52380950  0.51851852  1
  Ti  Ti8128  1  0.47619050  0.59523807  0.51851852  1
  Ti  Ti8129  1  0.47619050  0.66666664  0.51851852  1
  Ti  Ti8130  1  0.47619050  0.73809521  0.51851852  1
  Ti  Ti8131  1  0.47619050  0.80952379  0.51851852  1
  Ti  Ti8132  1  0.47619050  0.88095236  0.51851852  1
  Ti  Ti8133  1  0.47619050  0.95238093  0.51851852  1
  Ti  Ti8134  1  0.54761907  0.02380950  0.51851852  1
  Ti  Ti8135  1  0.54761907  0.09523807  0.51851852  1
  Ti  Ti8136  1  0.54761907  0.16666664  0.51851852  1
  Ti  Ti8137  1  0.54761907  0.23809521  0.51851852  1
  Ti  Ti8138  1  0.54761907  0.30952379  0.51851852  1
  Ti  Ti8139  1  0.54761907  0.38095236  0.51851852  1
  Ti  Ti8140  1  0.54761907  0.45238093  0.51851852  1
  Ti  Ti8141  1  0.54761907  0.52380950  0.51851852  1
  Ti  Ti8142  1  0.54761907  0.59523807  0.51851852  1
  Ti  Ti8143  1  0.54761907  0.66666664  0.51851852  1
  Ti  Ti8144  1  0.54761907  0.73809521  0.51851852  1
  Ti  Ti8145  1  0.54761907  0.80952379  0.51851852  1
  Ti  Ti8146  1  0.54761907  0.88095236  0.51851852  1
  Ti  Ti8147  1  0.54761907  0.95238093  0.51851852  1
  Ti  Ti8148  1  0.61904764  0.02380950  0.51851852  1
  Ti  Ti8149  1  0.61904764  0.09523807  0.51851852  1
  Ti  Ti8150  1  0.61904764  0.16666664  0.51851852  1
  Ti  Ti8151  1  0.61904764  0.23809521  0.51851852  1
  Ti  Ti8152  1  0.61904764  0.30952379  0.51851852  1
  Ti  Ti8153  1  0.61904764  0.38095236  0.51851852  1
  Ti  Ti8154  1  0.61904764  0.45238093  0.51851852  1
  Ti  Ti8155  1  0.61904764  0.52380950  0.51851852  1
  Ti  Ti8156  1  0.61904764  0.59523807  0.51851852  1
  Ti  Ti8157  1  0.61904764  0.66666664  0.51851852  1
  Ti  Ti8158  1  0.61904764  0.73809521  0.51851852  1
  Ti  Ti8159  1  0.61904764  0.80952379  0.51851852  1
  Ti  Ti8160  1  0.61904764  0.88095236  0.51851852  1
  Ti  Ti8161  1  0.61904764  0.95238093  0.51851852  1
  Ti  Ti8162  1  0.69047621  0.02380950  0.51851852  1
  Ti  Ti8163  1  0.69047621  0.09523807  0.51851852  1
  Ti  Ti8164  1  0.69047621  0.16666664  0.51851852  1
  Ti  Ti8165  1  0.69047621  0.23809521  0.51851852  1
  Ti  Ti8166  1  0.69047621  0.30952379  0.51851852  1
  Ti  Ti8167  1  0.69047621  0.38095236  0.51851852  1
  Ti  Ti8168  1  0.69047621  0.45238093  0.51851852  1
  Ti  Ti8169  1  0.69047621  0.52380950  0.51851852  1
  Ti  Ti8170  1  0.69047621  0.59523807  0.51851852  1
  Ti  Ti8171  1  0.69047621  0.66666664  0.51851852  1
  Ti  Ti8172  1  0.69047621  0.73809521  0.51851852  1
  Ti  Ti8173  1  0.69047621  0.80952379  0.51851852  1
  Ti  Ti8174  1  0.69047621  0.88095236  0.51851852  1
  Ti  Ti8175  1  0.69047621  0.95238093  0.51851852  1
  Ti  Ti8176  1  0.76190479  0.02380950  0.51851852  1
  Ti  Ti8177  1  0.76190479  0.09523807  0.51851852  1
  Ti  Ti8178  1  0.76190479  0.16666664  0.51851852  1
  Ti  Ti8179  1  0.76190479  0.23809521  0.51851852  1
  Ti  Ti8180  1  0.76190479  0.30952379  0.51851852  1
  Ti  Ti8181  1  0.76190479  0.38095236  0.51851852  1
  Ti  Ti8182  1  0.76190479  0.45238093  0.51851852  1
  Ti  Ti8183  1  0.76190479  0.52380950  0.51851852  1
  Ti  Ti8184  1  0.76190479  0.59523807  0.51851852  1
  Ti  Ti8185  1  0.76190479  0.66666664  0.51851852  1
  Ti  Ti8186  1  0.76190479  0.73809521  0.51851852  1
  Ti  Ti8187  1  0.76190479  0.80952379  0.51851852  1
  Ti  Ti8188  1  0.76190479  0.88095236  0.51851852  1
  Ti  Ti8189  1  0.76190479  0.95238093  0.51851852  1
  Ti  Ti8190  1  0.83333336  0.02380950  0.51851852  1
  Ti  Ti8191  1  0.83333336  0.09523807  0.51851852  1
  Ti  Ti8192  1  0.83333336  0.16666664  0.51851852  1
  Ti  Ti8193  1  0.83333336  0.23809521  0.51851852  1
  Ti  Ti8194  1  0.83333336  0.30952379  0.51851852  1
  Ti  Ti8195  1  0.83333336  0.38095236  0.51851852  1
  Ti  Ti8196  1  0.83333336  0.45238093  0.51851852  1
  Ti  Ti8197  1  0.83333336  0.52380950  0.51851852  1
  Ti  Ti8198  1  0.83333336  0.59523807  0.51851852  1
  Ti  Ti8199  1  0.83333336  0.66666664  0.51851852  1
  Ti  Ti8200  1  0.83333336  0.73809521  0.51851852  1
  Ti  Ti8201  1  0.83333336  0.80952379  0.51851852  1
  Ti  Ti8202  1  0.83333336  0.88095236  0.51851852  1
  Ti  Ti8203  1  0.83333336  0.95238093  0.51851852  1
  Ti  Ti8204  1  0.90476193  0.02380950  0.51851852  1
  Ti  Ti8205  1  0.90476193  0.09523807  0.51851852  1
  Ti  Ti8206  1  0.90476193  0.16666664  0.51851852  1
  Ti  Ti8207  1  0.90476193  0.23809521  0.51851852  1
  Ti  Ti8208  1  0.90476193  0.30952379  0.51851852  1
  Ti  Ti8209  1  0.90476193  0.38095236  0.51851852  1
  Ti  Ti8210  1  0.90476193  0.45238093  0.51851852  1
  Ti  Ti8211  1  0.90476193  0.52380950  0.51851852  1
  Ti  Ti8212  1  0.90476193  0.59523807  0.51851852  1
  Ti  Ti8213  1  0.90476193  0.66666664  0.51851852  1
  Ti  Ti8214  1  0.90476193  0.73809521  0.51851852  1
  Ti  Ti8215  1  0.90476193  0.80952379  0.51851852  1
  Ti  Ti8216  1  0.90476193  0.88095236  0.51851852  1
  Ti  Ti8217  1  0.90476193  0.95238093  0.51851852  1
  Ti  Ti8218  1  0.97619050  0.02380950  0.51851852  1
  Ti  Ti8219  1  0.97619050  0.09523807  0.51851852  1
  Ti  Ti8220  1  0.97619050  0.16666664  0.51851852  1
  Ti  Ti8221  1  0.97619050  0.23809521  0.51851852  1
  Ti  Ti8222  1  0.97619050  0.30952379  0.51851852  1
  Ti  Ti8223  1  0.97619050  0.38095236  0.51851852  1
  Ti  Ti8224  1  0.97619050  0.45238093  0.51851852  1
  Ti  Ti8225  1  0.97619050  0.52380950  0.51851852  1
  Ti  Ti8226  1  0.97619050  0.59523807  0.51851852  1
  Ti  Ti8227  1  0.97619050  0.66666664  0.51851852  1
  Ti  Ti8228  1  0.97619050  0.73809521  0.51851852  1
  Ti  Ti8229  1  0.97619050  0.80952379  0.51851852  1
  Ti  Ti8230  1  0.97619050  0.88095236  0.51851852  1
  Ti  Ti8231  1  0.97619050  0.95238093  0.51851852  1
  Ti  Ti8232  1  0.00000000  0.00000000  0.55185185  1
  Ti  Ti8233  1  0.00000000  0.07142857  0.55185185  1
  Ti  Ti8234  1  0.00000000  0.14285714  0.55185185  1
  Ti  Ti8235  1  0.00000000  0.21428571  0.55185185  1
  Ti  Ti8236  1  0.00000000  0.28571429  0.55185185  1
  Ti  Ti8237  1  0.00000000  0.35714286  0.55185185  1
  Ti  Ti8238  1  0.00000000  0.42857143  0.55185185  1
  Ti  Ti8239  1  0.00000000  0.50000000  0.55185185  1
  Ti  Ti8240  1  0.00000000  0.57142857  0.55185185  1
  Ti  Ti8241  1  0.00000000  0.64285714  0.55185185  1
  Ti  Ti8242  1  0.00000000  0.71428571  0.55185185  1
  Ti  Ti8243  1  1.00000000  0.78571429  0.55185185  1
  Ti  Ti8244  1  0.00000000  0.85714286  0.55185185  1
  Ti  Ti8245  1  0.00000000  0.92857143  0.55185185  1
  Ti  Ti8246  1  0.07142857  0.00000000  0.55185185  1
  Ti  Ti8247  1  0.07142857  0.07142857  0.55185185  1
  Ti  Ti8248  1  0.07142857  0.14285714  0.55185185  1
  Ti  Ti8249  1  0.07142857  0.21428571  0.55185185  1
  Ti  Ti8250  1  0.07142857  0.28571429  0.55185185  1
  Ti  Ti8251  1  0.07142857  0.35714286  0.55185185  1
  Ti  Ti8252  1  0.07142857  0.42857143  0.55185185  1
  Ti  Ti8253  1  0.07142857  0.50000000  0.55185185  1
  Ti  Ti8254  1  0.07142857  0.57142857  0.55185185  1
  Ti  Ti8255  1  0.07142857  0.64285714  0.55185185  1
  Ti  Ti8256  1  0.07142857  0.71428571  0.55185185  1
  Ti  Ti8257  1  0.07142857  0.78571429  0.55185185  1
  Ti  Ti8258  1  0.07142857  0.85714286  0.55185185  1
  Ti  Ti8259  1  0.07142857  0.92857143  0.55185185  1
  Ti  Ti8260  1  0.14285714  0.00000000  0.55185185  1
  Ti  Ti8261  1  0.14285714  0.07142857  0.55185185  1
  Ti  Ti8262  1  0.14285714  0.14285714  0.55185185  1
  Ti  Ti8263  1  0.14285714  0.21428571  0.55185185  1
  Ti  Ti8264  1  0.14285714  0.28571429  0.55185185  1
  Ti  Ti8265  1  0.14285714  0.35714286  0.55185185  1
  Ti  Ti8266  1  0.14285714  0.42857143  0.55185185  1
  Ti  Ti8267  1  0.14285714  0.50000000  0.55185185  1
  Ti  Ti8268  1  0.14285714  0.57142857  0.55185185  1
  Ti  Ti8269  1  0.14285714  0.64285714  0.55185185  1
  Ti  Ti8270  1  0.14285714  0.71428571  0.55185185  1
  Ti  Ti8271  1  0.14285714  0.78571429  0.55185185  1
  Ti  Ti8272  1  0.14285714  0.85714286  0.55185185  1
  Ti  Ti8273  1  0.14285714  0.92857143  0.55185185  1
  Ti  Ti8274  1  0.21428571  0.00000000  0.55185185  1
  Ti  Ti8275  1  0.21428571  0.07142857  0.55185185  1
  Ti  Ti8276  1  0.21428571  0.14285714  0.55185185  1
  Ti  Ti8277  1  0.21428571  0.21428571  0.55185185  1
  Ti  Ti8278  1  0.21428571  0.28571429  0.55185185  1
  Ti  Ti8279  1  0.21428571  0.35714286  0.55185185  1
  Ti  Ti8280  1  0.21428571  0.42857143  0.55185185  1
  Ti  Ti8281  1  0.21428571  0.50000000  0.55185185  1
  Ti  Ti8282  1  0.21428571  0.57142857  0.55185185  1
  Ti  Ti8283  1  0.21428571  0.64285714  0.55185185  1
  Ti  Ti8284  1  0.21428571  0.71428571  0.55185185  1
  Ti  Ti8285  1  0.21428571  0.78571429  0.55185185  1
  Ti  Ti8286  1  0.21428571  0.85714286  0.55185185  1
  Ti  Ti8287  1  0.21428571  0.92857143  0.55185185  1
  Ti  Ti8288  1  0.28571429  0.00000000  0.55185185  1
  Ti  Ti8289  1  0.28571429  0.07142857  0.55185185  1
  Ti  Ti8290  1  0.28571429  0.14285714  0.55185185  1
  Ti  Ti8291  1  0.28571429  0.21428571  0.55185185  1
  Ti  Ti8292  1  0.28571429  0.28571429  0.55185185  1
  Ti  Ti8293  1  0.28571429  0.35714286  0.55185185  1
  Ti  Ti8294  1  0.28571429  0.42857143  0.55185185  1
  Ti  Ti8295  1  0.28571429  0.50000000  0.55185185  1
  Ti  Ti8296  1  0.28571429  0.57142857  0.55185185  1
  Ti  Ti8297  1  0.28571429  0.64285714  0.55185185  1
  Ti  Ti8298  1  0.28571429  0.71428571  0.55185185  1
  Ti  Ti8299  1  0.28571429  0.78571429  0.55185185  1
  Ti  Ti8300  1  0.28571429  0.85714286  0.55185185  1
  Ti  Ti8301  1  0.28571429  0.92857143  0.55185185  1
  Ti  Ti8302  1  0.35714286  0.00000000  0.55185185  1
  Ti  Ti8303  1  0.35714286  0.07142857  0.55185185  1
  Ti  Ti8304  1  0.35714286  0.14285714  0.55185185  1
  Ti  Ti8305  1  0.35714286  0.21428571  0.55185185  1
  Ti  Ti8306  1  0.35714286  0.28571429  0.55185185  1
  Ti  Ti8307  1  0.35714286  0.35714286  0.55185185  1
  Ti  Ti8308  1  0.35714286  0.42857143  0.55185185  1
  Ti  Ti8309  1  0.35714286  0.50000000  0.55185185  1
  Ti  Ti8310  1  0.35714286  0.57142857  0.55185185  1
  Ti  Ti8311  1  0.35714286  0.64285714  0.55185185  1
  Ti  Ti8312  1  0.35714286  0.71428571  0.55185185  1
  Ti  Ti8313  1  0.35714286  0.78571429  0.55185185  1
  Ti  Ti8314  1  0.35714286  0.85714286  0.55185185  1
  Ti  Ti8315  1  0.35714286  0.92857143  0.55185185  1
  Ti  Ti8316  1  0.42857143  0.00000000  0.55185185  1
  Ti  Ti8317  1  0.42857143  0.07142857  0.55185185  1
  Ti  Ti8318  1  0.42857143  0.14285714  0.55185185  1
  Ti  Ti8319  1  0.42857143  0.21428571  0.55185185  1
  Ti  Ti8320  1  0.42857143  0.28571429  0.55185185  1
  Ti  Ti8321  1  0.42857143  0.35714286  0.55185185  1
  Ti  Ti8322  1  0.42857143  0.42857143  0.55185185  1
  Ti  Ti8323  1  0.42857143  0.50000000  0.55185185  1
  Ti  Ti8324  1  0.42857143  0.57142857  0.55185185  1
  Ti  Ti8325  1  0.42857143  0.64285714  0.55185185  1
  Ti  Ti8326  1  0.42857143  0.71428571  0.55185185  1
  Ti  Ti8327  1  0.42857143  0.78571429  0.55185185  1
  Ti  Ti8328  1  0.42857143  0.85714286  0.55185185  1
  Ti  Ti8329  1  0.42857143  0.92857143  0.55185185  1
  Ti  Ti8330  1  0.50000000  0.00000000  0.55185185  1
  Ti  Ti8331  1  0.50000000  0.07142857  0.55185185  1
  Ti  Ti8332  1  0.50000000  0.14285714  0.55185185  1
  Ti  Ti8333  1  0.50000000  0.21428571  0.55185185  1
  Ti  Ti8334  1  0.50000000  0.28571429  0.55185185  1
  Ti  Ti8335  1  0.50000000  0.35714286  0.55185185  1
  Ti  Ti8336  1  0.50000000  0.42857143  0.55185185  1
  Ti  Ti8337  1  0.50000000  0.50000000  0.55185185  1
  Ti  Ti8338  1  0.50000000  0.57142857  0.55185185  1
  Ti  Ti8339  1  0.50000000  0.64285714  0.55185185  1
  Ti  Ti8340  1  0.50000000  0.71428571  0.55185185  1
  Ti  Ti8341  1  0.50000000  0.78571429  0.55185185  1
  Ti  Ti8342  1  0.50000000  0.85714286  0.55185185  1
  Ti  Ti8343  1  0.50000000  0.92857143  0.55185185  1
  Ti  Ti8344  1  0.57142857  0.00000000  0.55185185  1
  Ti  Ti8345  1  0.57142857  0.07142857  0.55185185  1
  Ti  Ti8346  1  0.57142857  0.14285714  0.55185185  1
  Ti  Ti8347  1  0.57142857  0.21428571  0.55185185  1
  Ti  Ti8348  1  0.57142857  0.28571429  0.55185185  1
  Ti  Ti8349  1  0.57142857  0.35714286  0.55185185  1
  Ti  Ti8350  1  0.57142857  0.42857143  0.55185185  1
  Ti  Ti8351  1  0.57142857  0.50000000  0.55185185  1
  Ti  Ti8352  1  0.57142857  0.57142857  0.55185185  1
  Ti  Ti8353  1  0.57142857  0.64285714  0.55185185  1
  Ti  Ti8354  1  0.57142857  0.71428571  0.55185185  1
  Ti  Ti8355  1  0.57142857  0.78571429  0.55185185  1
  Ti  Ti8356  1  0.57142857  0.85714286  0.55185185  1
  Ti  Ti8357  1  0.57142857  0.92857143  0.55185185  1
  Ti  Ti8358  1  0.64285714  0.00000000  0.55185185  1
  Ti  Ti8359  1  0.64285714  0.07142857  0.55185185  1
  Ti  Ti8360  1  0.64285714  0.14285714  0.55185185  1
  Ti  Ti8361  1  0.64285714  0.21428571  0.55185185  1
  Ti  Ti8362  1  0.64285714  0.28571429  0.55185185  1
  Ti  Ti8363  1  0.64285714  0.35714286  0.55185185  1
  Ti  Ti8364  1  0.64285714  0.42857143  0.55185185  1
  Ti  Ti8365  1  0.64285714  0.50000000  0.55185185  1
  Ti  Ti8366  1  0.64285714  0.57142857  0.55185185  1
  Ti  Ti8367  1  0.64285714  0.64285714  0.55185185  1
  Ti  Ti8368  1  0.64285714  0.71428571  0.55185185  1
  Ti  Ti8369  1  0.64285714  0.78571429  0.55185185  1
  Ti  Ti8370  1  0.64285714  0.85714286  0.55185185  1
  Ti  Ti8371  1  0.64285714  0.92857143  0.55185185  1
  Ti  Ti8372  1  0.71428571  0.00000000  0.55185185  1
  Ti  Ti8373  1  0.71428571  0.07142857  0.55185185  1
  Ti  Ti8374  1  0.71428571  0.14285714  0.55185185  1
  Ti  Ti8375  1  0.71428571  0.21428571  0.55185185  1
  Ti  Ti8376  1  0.71428571  0.28571429  0.55185185  1
  Ti  Ti8377  1  0.71428571  0.35714286  0.55185185  1
  Ti  Ti8378  1  0.71428571  0.42857143  0.55185185  1
  Ti  Ti8379  1  0.71428571  0.50000000  0.55185185  1
  Ti  Ti8380  1  0.71428571  0.57142857  0.55185185  1
  Ti  Ti8381  1  0.71428571  0.64285714  0.55185185  1
  Ti  Ti8382  1  0.71428571  0.71428571  0.55185185  1
  Ti  Ti8383  1  0.71428571  0.78571429  0.55185185  1
  Ti  Ti8384  1  0.71428571  0.85714286  0.55185185  1
  Ti  Ti8385  1  0.71428571  0.92857143  0.55185185  1
  Ti  Ti8386  1  0.78571429  0.00000000  0.55185185  1
  Ti  Ti8387  1  0.78571429  0.07142857  0.55185185  1
  Ti  Ti8388  1  0.78571429  0.14285714  0.55185185  1
  Ti  Ti8389  1  0.78571429  0.21428571  0.55185185  1
  Ti  Ti8390  1  0.78571429  0.28571429  0.55185185  1
  Ti  Ti8391  1  0.78571429  0.35714286  0.55185185  1
  Ti  Ti8392  1  0.78571429  0.42857143  0.55185185  1
  Ti  Ti8393  1  0.78571429  0.50000000  0.55185185  1
  Ti  Ti8394  1  0.78571429  0.57142857  0.55185185  1
  Ti  Ti8395  1  0.78571429  0.64285714  0.55185185  1
  Ti  Ti8396  1  0.78571429  0.71428571  0.55185185  1
  Ti  Ti8397  1  0.78571429  0.78571429  0.55185185  1
  Ti  Ti8398  1  0.78571429  0.85714286  0.55185185  1
  Ti  Ti8399  1  0.78571429  0.92857143  0.55185185  1
  Ti  Ti8400  1  0.85714286  0.00000000  0.55185185  1
  Ti  Ti8401  1  0.85714286  0.07142857  0.55185185  1
  Ti  Ti8402  1  0.85714286  0.14285714  0.55185185  1
  Ti  Ti8403  1  0.85714286  0.21428571  0.55185185  1
  Ti  Ti8404  1  0.85714286  0.28571429  0.55185185  1
  Ti  Ti8405  1  0.85714286  0.35714286  0.55185185  1
  Ti  Ti8406  1  0.85714286  0.42857143  0.55185185  1
  Ti  Ti8407  1  0.85714286  0.50000000  0.55185185  1
  Ti  Ti8408  1  0.85714286  0.57142857  0.55185185  1
  Ti  Ti8409  1  0.85714286  0.64285714  0.55185185  1
  Ti  Ti8410  1  0.85714286  0.71428571  0.55185185  1
  Ti  Ti8411  1  0.85714286  0.78571429  0.55185185  1
  Ti  Ti8412  1  0.85714286  0.85714286  0.55185185  1
  Ti  Ti8413  1  0.85714286  0.92857143  0.55185185  1
  Ti  Ti8414  1  0.92857143  0.00000000  0.55185185  1
  Ti  Ti8415  1  0.92857143  0.07142857  0.55185185  1
  Ti  Ti8416  1  0.92857143  0.14285714  0.55185185  1
  Ti  Ti8417  1  0.92857143  0.21428571  0.55185185  1
  Ti  Ti8418  1  0.92857143  0.28571429  0.55185185  1
  Ti  Ti8419  1  0.92857143  0.35714286  0.55185185  1
  Ti  Ti8420  1  0.92857143  0.42857143  0.55185185  1
  Ti  Ti8421  1  0.92857143  0.50000000  0.55185185  1
  Ti  Ti8422  1  0.92857143  0.57142857  0.55185185  1
  Ti  Ti8423  1  0.92857143  0.64285714  0.55185185  1
  Ti  Ti8424  1  0.92857143  0.71428571  0.55185185  1
  Ti  Ti8425  1  0.92857143  0.78571429  0.55185185  1
  Ti  Ti8426  1  0.92857143  0.85714286  0.55185185  1
  Ti  Ti8427  1  0.92857143  0.92857143  0.55185185  1
  Ti  Ti8428  1  0.02380950  0.04761907  0.54074074  1
  Ti  Ti8429  1  0.02380950  0.11904764  0.54074074  1
  Ti  Ti8430  1  0.02380950  0.19047621  0.54074074  1
  Ti  Ti8431  1  0.02380950  0.26190479  0.54074074  1
  Ti  Ti8432  1  0.02380950  0.33333336  0.54074074  1
  Ti  Ti8433  1  0.02380950  0.40476193  0.54074074  1
  Ti  Ti8434  1  0.02380950  0.47619050  0.54074074  1
  Ti  Ti8435  1  0.02380950  0.54761907  0.54074074  1
  Ti  Ti8436  1  0.02380950  0.61904764  0.54074074  1
  Ti  Ti8437  1  0.02380950  0.69047621  0.54074074  1
  Ti  Ti8438  1  0.02380950  0.76190479  0.54074074  1
  Ti  Ti8439  1  0.02380950  0.83333336  0.54074074  1
  Ti  Ti8440  1  0.02380950  0.90476193  0.54074074  1
  Ti  Ti8441  1  0.02380950  0.97619050  0.54074074  1
  Ti  Ti8442  1  0.09523807  0.04761907  0.54074074  1
  Ti  Ti8443  1  0.09523807  0.11904764  0.54074074  1
  Ti  Ti8444  1  0.09523807  0.19047621  0.54074074  1
  Ti  Ti8445  1  0.09523807  0.26190479  0.54074074  1
  Ti  Ti8446  1  0.09523807  0.33333336  0.54074074  1
  Ti  Ti8447  1  0.09523807  0.40476193  0.54074074  1
  Ti  Ti8448  1  0.09523807  0.47619050  0.54074074  1
  Ti  Ti8449  1  0.09523807  0.54761907  0.54074074  1
  Ti  Ti8450  1  0.09523807  0.61904764  0.54074074  1
  Ti  Ti8451  1  0.09523807  0.69047621  0.54074074  1
  Ti  Ti8452  1  0.09523807  0.76190479  0.54074074  1
  Ti  Ti8453  1  0.09523807  0.83333336  0.54074074  1
  Ti  Ti8454  1  0.09523807  0.90476193  0.54074074  1
  Ti  Ti8455  1  0.09523807  0.97619050  0.54074074  1
  Ti  Ti8456  1  0.16666664  0.04761907  0.54074074  1
  Ti  Ti8457  1  0.16666664  0.11904764  0.54074074  1
  Ti  Ti8458  1  0.16666664  0.19047621  0.54074074  1
  Ti  Ti8459  1  0.16666664  0.26190479  0.54074074  1
  Ti  Ti8460  1  0.16666664  0.33333336  0.54074074  1
  Ti  Ti8461  1  0.16666664  0.40476193  0.54074074  1
  Ti  Ti8462  1  0.16666664  0.47619050  0.54074074  1
  Ti  Ti8463  1  0.16666664  0.54761907  0.54074074  1
  Ti  Ti8464  1  0.16666664  0.61904764  0.54074074  1
  Ti  Ti8465  1  0.16666664  0.69047621  0.54074074  1
  Ti  Ti8466  1  0.16666664  0.76190479  0.54074074  1
  Ti  Ti8467  1  0.16666664  0.83333336  0.54074074  1
  Ti  Ti8468  1  0.16666664  0.90476193  0.54074074  1
  Ti  Ti8469  1  0.16666664  0.97619050  0.54074074  1
  Ti  Ti8470  1  0.23809521  0.04761907  0.54074074  1
  Ti  Ti8471  1  0.23809521  0.11904764  0.54074074  1
  Ti  Ti8472  1  0.23809521  0.19047621  0.54074074  1
  Ti  Ti8473  1  0.23809521  0.26190479  0.54074074  1
  Ti  Ti8474  1  0.23809521  0.33333336  0.54074074  1
  Ti  Ti8475  1  0.23809521  0.40476193  0.54074074  1
  Ti  Ti8476  1  0.23809521  0.47619050  0.54074074  1
  Ti  Ti8477  1  0.23809521  0.54761907  0.54074074  1
  Ti  Ti8478  1  0.23809521  0.61904764  0.54074074  1
  Ti  Ti8479  1  0.23809521  0.69047621  0.54074074  1
  Ti  Ti8480  1  0.23809521  0.76190479  0.54074074  1
  Ti  Ti8481  1  0.23809521  0.83333336  0.54074074  1
  Ti  Ti8482  1  0.23809521  0.90476193  0.54074074  1
  Ti  Ti8483  1  0.23809521  0.97619050  0.54074074  1
  Ti  Ti8484  1  0.30952379  0.04761907  0.54074074  1
  Ti  Ti8485  1  0.30952379  0.11904764  0.54074074  1
  Ti  Ti8486  1  0.30952379  0.19047621  0.54074074  1
  Ti  Ti8487  1  0.30952379  0.26190479  0.54074074  1
  Ti  Ti8488  1  0.30952379  0.33333336  0.54074074  1
  Ti  Ti8489  1  0.30952379  0.40476193  0.54074074  1
  Ti  Ti8490  1  0.30952379  0.47619050  0.54074074  1
  Ti  Ti8491  1  0.30952379  0.54761907  0.54074074  1
  Ti  Ti8492  1  0.30952379  0.61904764  0.54074074  1
  Ti  Ti8493  1  0.30952379  0.69047621  0.54074074  1
  Ti  Ti8494  1  0.30952379  0.76190479  0.54074074  1
  Ti  Ti8495  1  0.30952379  0.83333336  0.54074074  1
  Ti  Ti8496  1  0.30952379  0.90476193  0.54074074  1
  Ti  Ti8497  1  0.30952379  0.97619050  0.54074074  1
  Ti  Ti8498  1  0.38095236  0.04761907  0.54074074  1
  Ti  Ti8499  1  0.38095236  0.11904764  0.54074074  1
  Ti  Ti8500  1  0.38095236  0.19047621  0.54074074  1
  Ti  Ti8501  1  0.38095236  0.26190479  0.54074074  1
  Ti  Ti8502  1  0.38095236  0.33333336  0.54074074  1
  Ti  Ti8503  1  0.38095236  0.40476193  0.54074074  1
  Ti  Ti8504  1  0.38095236  0.47619050  0.54074074  1
  Ti  Ti8505  1  0.38095236  0.54761907  0.54074074  1
  Ti  Ti8506  1  0.38095236  0.61904764  0.54074074  1
  Ti  Ti8507  1  0.38095236  0.69047621  0.54074074  1
  Ti  Ti8508  1  0.38095236  0.76190479  0.54074074  1
  Ti  Ti8509  1  0.38095236  0.83333336  0.54074074  1
  Ti  Ti8510  1  0.38095236  0.90476193  0.54074074  1
  Ti  Ti8511  1  0.38095236  0.97619050  0.54074074  1
  Ti  Ti8512  1  0.45238093  0.04761907  0.54074074  1
  Ti  Ti8513  1  0.45238093  0.11904764  0.54074074  1
  Ti  Ti8514  1  0.45238093  0.19047621  0.54074074  1
  Ti  Ti8515  1  0.45238093  0.26190479  0.54074074  1
  Ti  Ti8516  1  0.45238093  0.33333336  0.54074074  1
  Ti  Ti8517  1  0.45238093  0.40476193  0.54074074  1
  Ti  Ti8518  1  0.45238093  0.47619050  0.54074074  1
  Ti  Ti8519  1  0.45238093  0.54761907  0.54074074  1
  Ti  Ti8520  1  0.45238093  0.61904764  0.54074074  1
  Ti  Ti8521  1  0.45238093  0.69047621  0.54074074  1
  Ti  Ti8522  1  0.45238093  0.76190479  0.54074074  1
  Ti  Ti8523  1  0.45238093  0.83333336  0.54074074  1
  Ti  Ti8524  1  0.45238093  0.90476193  0.54074074  1
  Ti  Ti8525  1  0.45238093  0.97619050  0.54074074  1
  Ti  Ti8526  1  0.52380950  0.04761907  0.54074074  1
  Ti  Ti8527  1  0.52380950  0.11904764  0.54074074  1
  Ti  Ti8528  1  0.52380950  0.19047621  0.54074074  1
  Ti  Ti8529  1  0.52380950  0.26190479  0.54074074  1
  Ti  Ti8530  1  0.52380950  0.33333336  0.54074074  1
  Ti  Ti8531  1  0.52380950  0.40476193  0.54074074  1
  Ti  Ti8532  1  0.52380950  0.47619050  0.54074074  1
  Ti  Ti8533  1  0.52380950  0.54761907  0.54074074  1
  Ti  Ti8534  1  0.52380950  0.61904764  0.54074074  1
  Ti  Ti8535  1  0.52380950  0.69047621  0.54074074  1
  Ti  Ti8536  1  0.52380950  0.76190479  0.54074074  1
  Ti  Ti8537  1  0.52380950  0.83333336  0.54074074  1
  Ti  Ti8538  1  0.52380950  0.90476193  0.54074074  1
  Ti  Ti8539  1  0.52380950  0.97619050  0.54074074  1
  Ti  Ti8540  1  0.59523807  0.04761907  0.54074074  1
  Ti  Ti8541  1  0.59523807  0.11904764  0.54074074  1
  Ti  Ti8542  1  0.59523807  0.19047621  0.54074074  1
  Ti  Ti8543  1  0.59523807  0.26190479  0.54074074  1
  Ti  Ti8544  1  0.59523807  0.33333336  0.54074074  1
  Ti  Ti8545  1  0.59523807  0.40476193  0.54074074  1
  Ti  Ti8546  1  0.59523807  0.47619050  0.54074074  1
  Ti  Ti8547  1  0.59523807  0.54761907  0.54074074  1
  Ti  Ti8548  1  0.59523807  0.61904764  0.54074074  1
  Ti  Ti8549  1  0.59523807  0.69047621  0.54074074  1
  Ti  Ti8550  1  0.59523807  0.76190479  0.54074074  1
  Ti  Ti8551  1  0.59523807  0.83333336  0.54074074  1
  Ti  Ti8552  1  0.59523807  0.90476193  0.54074074  1
  Ti  Ti8553  1  0.59523807  0.97619050  0.54074074  1
  Ti  Ti8554  1  0.66666664  0.04761907  0.54074074  1
  Ti  Ti8555  1  0.66666664  0.11904764  0.54074074  1
  Ti  Ti8556  1  0.66666664  0.19047621  0.54074074  1
  Ti  Ti8557  1  0.66666664  0.26190479  0.54074074  1
  Ti  Ti8558  1  0.66666664  0.33333336  0.54074074  1
  Ti  Ti8559  1  0.66666664  0.40476193  0.54074074  1
  Ti  Ti8560  1  0.66666664  0.47619050  0.54074074  1
  Ti  Ti8561  1  0.66666664  0.54761907  0.54074074  1
  Ti  Ti8562  1  0.66666664  0.61904764  0.54074074  1
  Ti  Ti8563  1  0.66666664  0.69047621  0.54074074  1
  Ti  Ti8564  1  0.66666664  0.76190479  0.54074074  1
  Ti  Ti8565  1  0.66666664  0.83333336  0.54074074  1
  Ti  Ti8566  1  0.66666664  0.90476193  0.54074074  1
  Ti  Ti8567  1  0.66666664  0.97619050  0.54074074  1
  Ti  Ti8568  1  0.73809521  0.04761907  0.54074074  1
  Ti  Ti8569  1  0.73809521  0.11904764  0.54074074  1
  Ti  Ti8570  1  0.73809521  0.19047621  0.54074074  1
  Ti  Ti8571  1  0.73809521  0.26190479  0.54074074  1
  Ti  Ti8572  1  0.73809521  0.33333336  0.54074074  1
  Ti  Ti8573  1  0.73809521  0.40476193  0.54074074  1
  Ti  Ti8574  1  0.73809521  0.47619050  0.54074074  1
  Ti  Ti8575  1  0.73809521  0.54761907  0.54074074  1
  Ti  Ti8576  1  0.73809521  0.61904764  0.54074074  1
  Ti  Ti8577  1  0.73809521  0.69047621  0.54074074  1
  Ti  Ti8578  1  0.73809521  0.76190479  0.54074074  1
  Ti  Ti8579  1  0.73809521  0.83333336  0.54074074  1
  Ti  Ti8580  1  0.73809521  0.90476193  0.54074074  1
  Ti  Ti8581  1  0.73809521  0.97619050  0.54074074  1
  Ti  Ti8582  1  0.80952379  0.04761907  0.54074074  1
  Ti  Ti8583  1  0.80952379  0.11904764  0.54074074  1
  Ti  Ti8584  1  0.80952379  0.19047621  0.54074074  1
  Ti  Ti8585  1  0.80952379  0.26190479  0.54074074  1
  Ti  Ti8586  1  0.80952379  0.33333336  0.54074074  1
  Ti  Ti8587  1  0.80952379  0.40476193  0.54074074  1
  Ti  Ti8588  1  0.80952379  0.47619050  0.54074074  1
  Ti  Ti8589  1  0.80952379  0.54761907  0.54074074  1
  Ti  Ti8590  1  0.80952379  0.61904764  0.54074074  1
  Ti  Ti8591  1  0.80952379  0.69047621  0.54074074  1
  Ti  Ti8592  1  0.80952379  0.76190479  0.54074074  1
  Ti  Ti8593  1  0.80952379  0.83333336  0.54074074  1
  Ti  Ti8594  1  0.80952379  0.90476193  0.54074074  1
  Ti  Ti8595  1  0.80952379  0.97619050  0.54074074  1
  Ti  Ti8596  1  0.88095236  0.04761907  0.54074074  1
  Ti  Ti8597  1  0.88095236  0.11904764  0.54074074  1
  Ti  Ti8598  1  0.88095236  0.19047621  0.54074074  1
  Ti  Ti8599  1  0.88095236  0.26190479  0.54074074  1
  Ti  Ti8600  1  0.88095236  0.33333336  0.54074074  1
  Ti  Ti8601  1  0.88095236  0.40476193  0.54074074  1
  Ti  Ti8602  1  0.88095236  0.47619050  0.54074074  1
  Ti  Ti8603  1  0.88095236  0.54761907  0.54074074  1
  Ti  Ti8604  1  0.88095236  0.61904764  0.54074074  1
  Ti  Ti8605  1  0.88095236  0.69047621  0.54074074  1
  Ti  Ti8606  1  0.88095236  0.76190479  0.54074074  1
  Ti  Ti8607  1  0.88095236  0.83333336  0.54074074  1
  Ti  Ti8608  1  0.88095236  0.90476193  0.54074074  1
  Ti  Ti8609  1  0.88095236  0.97619050  0.54074074  1
  Ti  Ti8610  1  0.95238093  0.04761907  0.54074074  1
  Ti  Ti8611  1  0.95238093  0.11904764  0.54074074  1
  Ti  Ti8612  1  0.95238093  0.19047621  0.54074074  1
  Ti  Ti8613  1  0.95238093  0.26190479  0.54074074  1
  Ti  Ti8614  1  0.95238093  0.33333336  0.54074074  1
  Ti  Ti8615  1  0.95238093  0.40476193  0.54074074  1
  Ti  Ti8616  1  0.95238093  0.47619050  0.54074074  1
  Ti  Ti8617  1  0.95238093  0.54761907  0.54074074  1
  Ti  Ti8618  1  0.95238093  0.61904764  0.54074074  1
  Ti  Ti8619  1  0.95238093  0.69047621  0.54074074  1
  Ti  Ti8620  1  0.95238093  0.76190479  0.54074074  1
  Ti  Ti8621  1  0.95238093  0.83333336  0.54074074  1
  Ti  Ti8622  1  0.95238093  0.90476193  0.54074074  1
  Ti  Ti8623  1  0.95238093  0.97619050  0.54074074  1
  Ti  Ti8624  1  0.04761907  0.02380950  0.54074074  1
  Ti  Ti8625  1  0.04761907  0.09523807  0.54074074  1
  Ti  Ti8626  1  0.04761907  0.16666664  0.54074074  1
  Ti  Ti8627  1  0.04761907  0.23809521  0.54074074  1
  Ti  Ti8628  1  0.04761907  0.30952379  0.54074074  1
  Ti  Ti8629  1  0.04761907  0.38095236  0.54074074  1
  Ti  Ti8630  1  0.04761907  0.45238093  0.54074074  1
  Ti  Ti8631  1  0.04761907  0.52380950  0.54074074  1
  Ti  Ti8632  1  0.04761907  0.59523807  0.54074074  1
  Ti  Ti8633  1  0.04761907  0.66666664  0.54074074  1
  Ti  Ti8634  1  0.04761907  0.73809521  0.54074074  1
  Ti  Ti8635  1  0.04761907  0.80952379  0.54074074  1
  Ti  Ti8636  1  0.04761907  0.88095236  0.54074074  1
  Ti  Ti8637  1  0.04761907  0.95238093  0.54074074  1
  Ti  Ti8638  1  0.11904764  0.02380950  0.54074074  1
  Ti  Ti8639  1  0.11904764  0.09523807  0.54074074  1
  Ti  Ti8640  1  0.11904764  0.16666664  0.54074074  1
  Ti  Ti8641  1  0.11904764  0.23809521  0.54074074  1
  Ti  Ti8642  1  0.11904764  0.30952379  0.54074074  1
  Ti  Ti8643  1  0.11904764  0.38095236  0.54074074  1
  Ti  Ti8644  1  0.11904764  0.45238093  0.54074074  1
  Ti  Ti8645  1  0.11904764  0.52380950  0.54074074  1
  Ti  Ti8646  1  0.11904764  0.59523807  0.54074074  1
  Ti  Ti8647  1  0.11904764  0.66666664  0.54074074  1
  Ti  Ti8648  1  0.11904764  0.73809521  0.54074074  1
  Ti  Ti8649  1  0.11904764  0.80952379  0.54074074  1
  Ti  Ti8650  1  0.11904764  0.88095236  0.54074074  1
  Ti  Ti8651  1  0.11904764  0.95238093  0.54074074  1
  Ti  Ti8652  1  0.19047621  0.02380950  0.54074074  1
  Ti  Ti8653  1  0.19047621  0.09523807  0.54074074  1
  Ti  Ti8654  1  0.19047621  0.16666664  0.54074074  1
  Ti  Ti8655  1  0.19047621  0.23809521  0.54074074  1
  Ti  Ti8656  1  0.19047621  0.30952379  0.54074074  1
  Ti  Ti8657  1  0.19047621  0.38095236  0.54074074  1
  Ti  Ti8658  1  0.19047621  0.45238093  0.54074074  1
  Ti  Ti8659  1  0.19047621  0.52380950  0.54074074  1
  Ti  Ti8660  1  0.19047621  0.59523807  0.54074074  1
  Ti  Ti8661  1  0.19047621  0.66666664  0.54074074  1
  Ti  Ti8662  1  0.19047621  0.73809521  0.54074074  1
  Ti  Ti8663  1  0.19047621  0.80952379  0.54074074  1
  Ti  Ti8664  1  0.19047621  0.88095236  0.54074074  1
  Ti  Ti8665  1  0.19047621  0.95238093  0.54074074  1
  Ti  Ti8666  1  0.26190479  0.02380950  0.54074074  1
  Ti  Ti8667  1  0.26190479  0.09523807  0.54074074  1
  Ti  Ti8668  1  0.26190479  0.16666664  0.54074074  1
  Ti  Ti8669  1  0.26190479  0.23809521  0.54074074  1
  Ti  Ti8670  1  0.26190479  0.30952379  0.54074074  1
  Ti  Ti8671  1  0.26190479  0.38095236  0.54074074  1
  Ti  Ti8672  1  0.26190479  0.45238093  0.54074074  1
  Ti  Ti8673  1  0.26190479  0.52380950  0.54074074  1
  Ti  Ti8674  1  0.26190479  0.59523807  0.54074074  1
  Ti  Ti8675  1  0.26190479  0.66666664  0.54074074  1
  Ti  Ti8676  1  0.26190479  0.73809521  0.54074074  1
  Ti  Ti8677  1  0.26190479  0.80952379  0.54074074  1
  Ti  Ti8678  1  0.26190479  0.88095236  0.54074074  1
  Ti  Ti8679  1  0.26190479  0.95238093  0.54074074  1
  Ti  Ti8680  1  0.33333336  0.02380950  0.54074074  1
  Ti  Ti8681  1  0.33333336  0.09523807  0.54074074  1
  Ti  Ti8682  1  0.33333336  0.16666664  0.54074074  1
  Ti  Ti8683  1  0.33333336  0.23809521  0.54074074  1
  Ti  Ti8684  1  0.33333336  0.30952379  0.54074074  1
  Ti  Ti8685  1  0.33333336  0.38095236  0.54074074  1
  Ti  Ti8686  1  0.33333336  0.45238093  0.54074074  1
  Ti  Ti8687  1  0.33333336  0.52380950  0.54074074  1
  Ti  Ti8688  1  0.33333336  0.59523807  0.54074074  1
  Ti  Ti8689  1  0.33333336  0.66666664  0.54074074  1
  Ti  Ti8690  1  0.33333336  0.73809521  0.54074074  1
  Ti  Ti8691  1  0.33333336  0.80952379  0.54074074  1
  Ti  Ti8692  1  0.33333336  0.88095236  0.54074074  1
  Ti  Ti8693  1  0.33333336  0.95238093  0.54074074  1
  Ti  Ti8694  1  0.40476193  0.02380950  0.54074074  1
  Ti  Ti8695  1  0.40476193  0.09523807  0.54074074  1
  Ti  Ti8696  1  0.40476193  0.16666664  0.54074074  1
  Ti  Ti8697  1  0.40476193  0.23809521  0.54074074  1
  Ti  Ti8698  1  0.40476193  0.30952379  0.54074074  1
  Ti  Ti8699  1  0.40476193  0.38095236  0.54074074  1
  Ti  Ti8700  1  0.40476193  0.45238093  0.54074074  1
  Ti  Ti8701  1  0.40476193  0.52380950  0.54074074  1
  Ti  Ti8702  1  0.40476193  0.59523807  0.54074074  1
  Ti  Ti8703  1  0.40476193  0.66666664  0.54074074  1
  Ti  Ti8704  1  0.40476193  0.73809521  0.54074074  1
  Ti  Ti8705  1  0.40476193  0.80952379  0.54074074  1
  Ti  Ti8706  1  0.40476193  0.88095236  0.54074074  1
  Ti  Ti8707  1  0.40476193  0.95238093  0.54074074  1
  Ti  Ti8708  1  0.47619050  0.02380950  0.54074074  1
  Ti  Ti8709  1  0.47619050  0.09523807  0.54074074  1
  Ti  Ti8710  1  0.47619050  0.16666664  0.54074074  1
  Ti  Ti8711  1  0.47619050  0.23809521  0.54074074  1
  Ti  Ti8712  1  0.47619050  0.30952379  0.54074074  1
  Ti  Ti8713  1  0.47619050  0.38095236  0.54074074  1
  Ti  Ti8714  1  0.47619050  0.45238093  0.54074074  1
  Ti  Ti8715  1  0.47619050  0.52380950  0.54074074  1
  Ti  Ti8716  1  0.47619050  0.59523807  0.54074074  1
  Ti  Ti8717  1  0.47619050  0.66666664  0.54074074  1
  Ti  Ti8718  1  0.47619050  0.73809521  0.54074074  1
  Ti  Ti8719  1  0.47619050  0.80952379  0.54074074  1
  Ti  Ti8720  1  0.47619050  0.88095236  0.54074074  1
  Ti  Ti8721  1  0.47619050  0.95238093  0.54074074  1
  Ti  Ti8722  1  0.54761907  0.02380950  0.54074074  1
  Ti  Ti8723  1  0.54761907  0.09523807  0.54074074  1
  Ti  Ti8724  1  0.54761907  0.16666664  0.54074074  1
  Ti  Ti8725  1  0.54761907  0.23809521  0.54074074  1
  Ti  Ti8726  1  0.54761907  0.30952379  0.54074074  1
  Ti  Ti8727  1  0.54761907  0.38095236  0.54074074  1
  Ti  Ti8728  1  0.54761907  0.45238093  0.54074074  1
  Ti  Ti8729  1  0.54761907  0.52380950  0.54074074  1
  Ti  Ti8730  1  0.54761907  0.59523807  0.54074074  1
  Ti  Ti8731  1  0.54761907  0.66666664  0.54074074  1
  Ti  Ti8732  1  0.54761907  0.73809521  0.54074074  1
  Ti  Ti8733  1  0.54761907  0.80952379  0.54074074  1
  Ti  Ti8734  1  0.54761907  0.88095236  0.54074074  1
  Ti  Ti8735  1  0.54761907  0.95238093  0.54074074  1
  Ti  Ti8736  1  0.61904764  0.02380950  0.54074074  1
  Ti  Ti8737  1  0.61904764  0.09523807  0.54074074  1
  Ti  Ti8738  1  0.61904764  0.16666664  0.54074074  1
  Ti  Ti8739  1  0.61904764  0.23809521  0.54074074  1
  Ti  Ti8740  1  0.61904764  0.30952379  0.54074074  1
  Ti  Ti8741  1  0.61904764  0.38095236  0.54074074  1
  Ti  Ti8742  1  0.61904764  0.45238093  0.54074074  1
  Ti  Ti8743  1  0.61904764  0.52380950  0.54074074  1
  Ti  Ti8744  1  0.61904764  0.59523807  0.54074074  1
  Ti  Ti8745  1  0.61904764  0.66666664  0.54074074  1
  Ti  Ti8746  1  0.61904764  0.73809521  0.54074074  1
  Ti  Ti8747  1  0.61904764  0.80952379  0.54074074  1
  Ti  Ti8748  1  0.61904764  0.88095236  0.54074074  1
  Ti  Ti8749  1  0.61904764  0.95238093  0.54074074  1
  Ti  Ti8750  1  0.69047621  0.02380950  0.54074074  1
  Ti  Ti8751  1  0.69047621  0.09523807  0.54074074  1
  Ti  Ti8752  1  0.69047621  0.16666664  0.54074074  1
  Ti  Ti8753  1  0.69047621  0.23809521  0.54074074  1
  Ti  Ti8754  1  0.69047621  0.30952379  0.54074074  1
  Ti  Ti8755  1  0.69047621  0.38095236  0.54074074  1
  Ti  Ti8756  1  0.69047621  0.45238093  0.54074074  1
  Ti  Ti8757  1  0.69047621  0.52380950  0.54074074  1
  Ti  Ti8758  1  0.69047621  0.59523807  0.54074074  1
  Ti  Ti8759  1  0.69047621  0.66666664  0.54074074  1
  Ti  Ti8760  1  0.69047621  0.73809521  0.54074074  1
  Ti  Ti8761  1  0.69047621  0.80952379  0.54074074  1
  Ti  Ti8762  1  0.69047621  0.88095236  0.54074074  1
  Ti  Ti8763  1  0.69047621  0.95238093  0.54074074  1
  Ti  Ti8764  1  0.76190479  0.02380950  0.54074074  1
  Ti  Ti8765  1  0.76190479  0.09523807  0.54074074  1
  Ti  Ti8766  1  0.76190479  0.16666664  0.54074074  1
  Ti  Ti8767  1  0.76190479  0.23809521  0.54074074  1
  Ti  Ti8768  1  0.76190479  0.30952379  0.54074074  1
  Ti  Ti8769  1  0.76190479  0.38095236  0.54074074  1
  Ti  Ti8770  1  0.76190479  0.45238093  0.54074074  1
  Ti  Ti8771  1  0.76190479  0.52380950  0.54074074  1
  Ti  Ti8772  1  0.76190479  0.59523807  0.54074074  1
  Ti  Ti8773  1  0.76190479  0.66666664  0.54074074  1
  Ti  Ti8774  1  0.76190479  0.73809521  0.54074074  1
  Ti  Ti8775  1  0.76190479  0.80952379  0.54074074  1
  Ti  Ti8776  1  0.76190479  0.88095236  0.54074074  1
  Ti  Ti8777  1  0.76190479  0.95238093  0.54074074  1
  Ti  Ti8778  1  0.83333336  0.02380950  0.54074074  1
  Ti  Ti8779  1  0.83333336  0.09523807  0.54074074  1
  Ti  Ti8780  1  0.83333336  0.16666664  0.54074074  1
  Ti  Ti8781  1  0.83333336  0.23809521  0.54074074  1
  Ti  Ti8782  1  0.83333336  0.30952379  0.54074074  1
  Ti  Ti8783  1  0.83333336  0.38095236  0.54074074  1
  Ti  Ti8784  1  0.83333336  0.45238093  0.54074074  1
  Ti  Ti8785  1  0.83333336  0.52380950  0.54074074  1
  Ti  Ti8786  1  0.83333336  0.59523807  0.54074074  1
  Ti  Ti8787  1  0.83333336  0.66666664  0.54074074  1
  Ti  Ti8788  1  0.83333336  0.73809521  0.54074074  1
  Ti  Ti8789  1  0.83333336  0.80952379  0.54074074  1
  Ti  Ti8790  1  0.83333336  0.88095236  0.54074074  1
  Ti  Ti8791  1  0.83333336  0.95238093  0.54074074  1
  Ti  Ti8792  1  0.90476193  0.02380950  0.54074074  1
  Ti  Ti8793  1  0.90476193  0.09523807  0.54074074  1
  Ti  Ti8794  1  0.90476193  0.16666664  0.54074074  1
  Ti  Ti8795  1  0.90476193  0.23809521  0.54074074  1
  Ti  Ti8796  1  0.90476193  0.30952379  0.54074074  1
  Ti  Ti8797  1  0.90476193  0.38095236  0.54074074  1
  Ti  Ti8798  1  0.90476193  0.45238093  0.54074074  1
  Ti  Ti8799  1  0.90476193  0.52380950  0.54074074  1
  Ti  Ti8800  1  0.90476193  0.59523807  0.54074074  1
  Ti  Ti8801  1  0.90476193  0.66666664  0.54074074  1
  Ti  Ti8802  1  0.90476193  0.73809521  0.54074074  1
  Ti  Ti8803  1  0.90476193  0.80952379  0.54074074  1
  Ti  Ti8804  1  0.90476193  0.88095236  0.54074074  1
  Ti  Ti8805  1  0.90476193  0.95238093  0.54074074  1
  Ti  Ti8806  1  0.97619050  0.02380950  0.54074074  1
  Ti  Ti8807  1  0.97619050  0.09523807  0.54074074  1
  Ti  Ti8808  1  0.97619050  0.16666664  0.54074074  1
  Ti  Ti8809  1  0.97619050  0.23809521  0.54074074  1
  Ti  Ti8810  1  0.97619050  0.30952379  0.54074074  1
  Ti  Ti8811  1  0.97619050  0.38095236  0.54074074  1
  Ti  Ti8812  1  0.97619050  0.45238093  0.54074074  1
  Ti  Ti8813  1  0.97619050  0.52380950  0.54074074  1
  Ti  Ti8814  1  0.97619050  0.59523807  0.54074074  1
  Ti  Ti8815  1  0.97619050  0.66666664  0.54074074  1
  Ti  Ti8816  1  0.97619050  0.73809521  0.54074074  1
  Ti  Ti8817  1  0.97619050  0.80952379  0.54074074  1
  Ti  Ti8818  1  0.97619050  0.88095236  0.54074074  1
  Ti  Ti8819  1  0.97619050  0.95238093  0.54074074  1
  Ti  Ti8820  1  0.00000000  0.00000000  0.57407407  1
  Ti  Ti8821  1  0.00000000  0.07142857  0.57407407  1
  Ti  Ti8822  1  0.00000000  0.14285714  0.57407407  1
  Ti  Ti8823  1  0.00000000  0.21428571  0.57407407  1
  Ti  Ti8824  1  0.00000000  0.28571429  0.57407407  1
  Ti  Ti8825  1  0.00000000  0.35714286  0.57407407  1
  Ti  Ti8826  1  0.00000000  0.42857143  0.57407407  1
  Ti  Ti8827  1  0.00000000  0.50000000  0.57407407  1
  Ti  Ti8828  1  0.00000000  0.57142857  0.57407407  1
  Ti  Ti8829  1  0.00000000  0.64285714  0.57407407  1
  Ti  Ti8830  1  0.00000000  0.71428571  0.57407407  1
  Ti  Ti8831  1  1.00000000  0.78571429  0.57407407  1
  Ti  Ti8832  1  0.00000000  0.85714286  0.57407407  1
  Ti  Ti8833  1  0.00000000  0.92857143  0.57407407  1
  Ti  Ti8834  1  0.07142857  0.00000000  0.57407407  1
  Ti  Ti8835  1  0.07142857  0.07142857  0.57407407  1
  Ti  Ti8836  1  0.07142857  0.14285714  0.57407407  1
  Ti  Ti8837  1  0.07142857  0.21428571  0.57407407  1
  Ti  Ti8838  1  0.07142857  0.28571429  0.57407407  1
  Ti  Ti8839  1  0.07142857  0.35714286  0.57407407  1
  Ti  Ti8840  1  0.07142857  0.42857143  0.57407407  1
  Ti  Ti8841  1  0.07142857  0.50000000  0.57407407  1
  Ti  Ti8842  1  0.07142857  0.57142857  0.57407407  1
  Ti  Ti8843  1  0.07142857  0.64285714  0.57407407  1
  Ti  Ti8844  1  0.07142857  0.71428571  0.57407407  1
  Ti  Ti8845  1  0.07142857  0.78571429  0.57407407  1
  Ti  Ti8846  1  0.07142857  0.85714286  0.57407407  1
  Ti  Ti8847  1  0.07142857  0.92857143  0.57407407  1
  Ti  Ti8848  1  0.14285714  0.00000000  0.57407407  1
  Ti  Ti8849  1  0.14285714  0.07142857  0.57407407  1
  Ti  Ti8850  1  0.14285714  0.14285714  0.57407407  1
  Ti  Ti8851  1  0.14285714  0.21428571  0.57407407  1
  Ti  Ti8852  1  0.14285714  0.28571429  0.57407407  1
  Ti  Ti8853  1  0.14285714  0.35714286  0.57407407  1
  Ti  Ti8854  1  0.14285714  0.42857143  0.57407407  1
  Ti  Ti8855  1  0.14285714  0.50000000  0.57407407  1
  Ti  Ti8856  1  0.14285714  0.57142857  0.57407407  1
  Ti  Ti8857  1  0.14285714  0.64285714  0.57407407  1
  Ti  Ti8858  1  0.14285714  0.71428571  0.57407407  1
  Ti  Ti8859  1  0.14285714  0.78571429  0.57407407  1
  Ti  Ti8860  1  0.14285714  0.85714286  0.57407407  1
  Ti  Ti8861  1  0.14285714  0.92857143  0.57407407  1
  Ti  Ti8862  1  0.21428571  0.00000000  0.57407407  1
  Ti  Ti8863  1  0.21428571  0.07142857  0.57407407  1
  Ti  Ti8864  1  0.21428571  0.14285714  0.57407407  1
  Ti  Ti8865  1  0.21428571  0.21428571  0.57407407  1
  Ti  Ti8866  1  0.21428571  0.28571429  0.57407407  1
  Ti  Ti8867  1  0.21428571  0.35714286  0.57407407  1
  Ti  Ti8868  1  0.21428571  0.42857143  0.57407407  1
  Ti  Ti8869  1  0.21428571  0.50000000  0.57407407  1
  Ti  Ti8870  1  0.21428571  0.57142857  0.57407407  1
  Ti  Ti8871  1  0.21428571  0.64285714  0.57407407  1
  Ti  Ti8872  1  0.21428571  0.71428571  0.57407407  1
  Ti  Ti8873  1  0.21428571  0.78571429  0.57407407  1
  Ti  Ti8874  1  0.21428571  0.85714286  0.57407407  1
  Ti  Ti8875  1  0.21428571  0.92857143  0.57407407  1
  Ti  Ti8876  1  0.28571429  0.00000000  0.57407407  1
  Ti  Ti8877  1  0.28571429  0.07142857  0.57407407  1
  Ti  Ti8878  1  0.28571429  0.14285714  0.57407407  1
  Ti  Ti8879  1  0.28571429  0.21428571  0.57407407  1
  Ti  Ti8880  1  0.28571429  0.28571429  0.57407407  1
  Ti  Ti8881  1  0.28571429  0.35714286  0.57407407  1
  Ti  Ti8882  1  0.28571429  0.42857143  0.57407407  1
  Ti  Ti8883  1  0.28571429  0.50000000  0.57407407  1
  Ti  Ti8884  1  0.28571429  0.57142857  0.57407407  1
  Ti  Ti8885  1  0.28571429  0.64285714  0.57407407  1
  Ti  Ti8886  1  0.28571429  0.71428571  0.57407407  1
  Ti  Ti8887  1  0.28571429  0.78571429  0.57407407  1
  Ti  Ti8888  1  0.28571429  0.85714286  0.57407407  1
  Ti  Ti8889  1  0.28571429  0.92857143  0.57407407  1
  Ti  Ti8890  1  0.35714286  0.00000000  0.57407407  1
  Ti  Ti8891  1  0.35714286  0.07142857  0.57407407  1
  Ti  Ti8892  1  0.35714286  0.14285714  0.57407407  1
  Ti  Ti8893  1  0.35714286  0.21428571  0.57407407  1
  Ti  Ti8894  1  0.35714286  0.28571429  0.57407407  1
  Ti  Ti8895  1  0.35714286  0.35714286  0.57407407  1
  Ti  Ti8896  1  0.35714286  0.42857143  0.57407407  1
  Ti  Ti8897  1  0.35714286  0.50000000  0.57407407  1
  Ti  Ti8898  1  0.35714286  0.57142857  0.57407407  1
  Ti  Ti8899  1  0.35714286  0.64285714  0.57407407  1
  Ti  Ti8900  1  0.35714286  0.71428571  0.57407407  1
  Ti  Ti8901  1  0.35714286  0.78571429  0.57407407  1
  Ti  Ti8902  1  0.35714286  0.85714286  0.57407407  1
  Ti  Ti8903  1  0.35714286  0.92857143  0.57407407  1
  Ti  Ti8904  1  0.42857143  0.00000000  0.57407407  1
  Ti  Ti8905  1  0.42857143  0.07142857  0.57407407  1
  Ti  Ti8906  1  0.42857143  0.14285714  0.57407407  1
  Ti  Ti8907  1  0.42857143  0.21428571  0.57407407  1
  Ti  Ti8908  1  0.42857143  0.28571429  0.57407407  1
  Ti  Ti8909  1  0.42857143  0.35714286  0.57407407  1
  Ti  Ti8910  1  0.42857143  0.42857143  0.57407407  1
  Ti  Ti8911  1  0.42857143  0.50000000  0.57407407  1
  Ti  Ti8912  1  0.42857143  0.57142857  0.57407407  1
  Ti  Ti8913  1  0.42857143  0.64285714  0.57407407  1
  Ti  Ti8914  1  0.42857143  0.71428571  0.57407407  1
  Ti  Ti8915  1  0.42857143  0.78571429  0.57407407  1
  Ti  Ti8916  1  0.42857143  0.85714286  0.57407407  1
  Ti  Ti8917  1  0.42857143  0.92857143  0.57407407  1
  Ti  Ti8918  1  0.50000000  0.00000000  0.57407407  1
  Ti  Ti8919  1  0.50000000  0.07142857  0.57407407  1
  Ti  Ti8920  1  0.50000000  0.14285714  0.57407407  1
  Ti  Ti8921  1  0.50000000  0.21428571  0.57407407  1
  Ti  Ti8922  1  0.50000000  0.28571429  0.57407407  1
  Ti  Ti8923  1  0.50000000  0.35714286  0.57407407  1
  Ti  Ti8924  1  0.50000000  0.42857143  0.57407407  1
  Ti  Ti8925  1  0.50000000  0.50000000  0.57407407  1
  Ti  Ti8926  1  0.50000000  0.57142857  0.57407407  1
  Ti  Ti8927  1  0.50000000  0.64285714  0.57407407  1
  Ti  Ti8928  1  0.50000000  0.71428571  0.57407407  1
  Ti  Ti8929  1  0.50000000  0.78571429  0.57407407  1
  Ti  Ti8930  1  0.50000000  0.85714286  0.57407407  1
  Ti  Ti8931  1  0.50000000  0.92857143  0.57407407  1
  Ti  Ti8932  1  0.57142857  0.00000000  0.57407407  1
  Ti  Ti8933  1  0.57142857  0.07142857  0.57407407  1
  Ti  Ti8934  1  0.57142857  0.14285714  0.57407407  1
  Ti  Ti8935  1  0.57142857  0.21428571  0.57407407  1
  Ti  Ti8936  1  0.57142857  0.28571429  0.57407407  1
  Ti  Ti8937  1  0.57142857  0.35714286  0.57407407  1
  Ti  Ti8938  1  0.57142857  0.42857143  0.57407407  1
  Ti  Ti8939  1  0.57142857  0.50000000  0.57407407  1
  Ti  Ti8940  1  0.57142857  0.57142857  0.57407407  1
  Ti  Ti8941  1  0.57142857  0.64285714  0.57407407  1
  Ti  Ti8942  1  0.57142857  0.71428571  0.57407407  1
  Ti  Ti8943  1  0.57142857  0.78571429  0.57407407  1
  Ti  Ti8944  1  0.57142857  0.85714286  0.57407407  1
  Ti  Ti8945  1  0.57142857  0.92857143  0.57407407  1
  Ti  Ti8946  1  0.64285714  0.00000000  0.57407407  1
  Ti  Ti8947  1  0.64285714  0.07142857  0.57407407  1
  Ti  Ti8948  1  0.64285714  0.14285714  0.57407407  1
  Ti  Ti8949  1  0.64285714  0.21428571  0.57407407  1
  Ti  Ti8950  1  0.64285714  0.28571429  0.57407407  1
  Ti  Ti8951  1  0.64285714  0.35714286  0.57407407  1
  Ti  Ti8952  1  0.64285714  0.42857143  0.57407407  1
  Ti  Ti8953  1  0.64285714  0.50000000  0.57407407  1
  Ti  Ti8954  1  0.64285714  0.57142857  0.57407407  1
  Ti  Ti8955  1  0.64285714  0.64285714  0.57407407  1
  Ti  Ti8956  1  0.64285714  0.71428571  0.57407407  1
  Ti  Ti8957  1  0.64285714  0.78571429  0.57407407  1
  Ti  Ti8958  1  0.64285714  0.85714286  0.57407407  1
  Ti  Ti8959  1  0.64285714  0.92857143  0.57407407  1
  Ti  Ti8960  1  0.71428571  0.00000000  0.57407407  1
  Ti  Ti8961  1  0.71428571  0.07142857  0.57407407  1
  Ti  Ti8962  1  0.71428571  0.14285714  0.57407407  1
  Ti  Ti8963  1  0.71428571  0.21428571  0.57407407  1
  Ti  Ti8964  1  0.71428571  0.28571429  0.57407407  1
  Ti  Ti8965  1  0.71428571  0.35714286  0.57407407  1
  Ti  Ti8966  1  0.71428571  0.42857143  0.57407407  1
  Ti  Ti8967  1  0.71428571  0.50000000  0.57407407  1
  Ti  Ti8968  1  0.71428571  0.57142857  0.57407407  1
  Ti  Ti8969  1  0.71428571  0.64285714  0.57407407  1
  Ti  Ti8970  1  0.71428571  0.71428571  0.57407407  1
  Ti  Ti8971  1  0.71428571  0.78571429  0.57407407  1
  Ti  Ti8972  1  0.71428571  0.85714286  0.57407407  1
  Ti  Ti8973  1  0.71428571  0.92857143  0.57407407  1
  Ti  Ti8974  1  0.78571429  0.00000000  0.57407407  1
  Ti  Ti8975  1  0.78571429  0.07142857  0.57407407  1
  Ti  Ti8976  1  0.78571429  0.14285714  0.57407407  1
  Ti  Ti8977  1  0.78571429  0.21428571  0.57407407  1
  Ti  Ti8978  1  0.78571429  0.28571429  0.57407407  1
  Ti  Ti8979  1  0.78571429  0.35714286  0.57407407  1
  Ti  Ti8980  1  0.78571429  0.42857143  0.57407407  1
  Ti  Ti8981  1  0.78571429  0.50000000  0.57407407  1
  Ti  Ti8982  1  0.78571429  0.57142857  0.57407407  1
  Ti  Ti8983  1  0.78571429  0.64285714  0.57407407  1
  Ti  Ti8984  1  0.78571429  0.71428571  0.57407407  1
  Ti  Ti8985  1  0.78571429  0.78571429  0.57407407  1
  Ti  Ti8986  1  0.78571429  0.85714286  0.57407407  1
  Ti  Ti8987  1  0.78571429  0.92857143  0.57407407  1
  Ti  Ti8988  1  0.85714286  0.00000000  0.57407407  1
  Ti  Ti8989  1  0.85714286  0.07142857  0.57407407  1
  Ti  Ti8990  1  0.85714286  0.14285714  0.57407407  1
  Ti  Ti8991  1  0.85714286  0.21428571  0.57407407  1
  Ti  Ti8992  1  0.85714286  0.28571429  0.57407407  1
  Ti  Ti8993  1  0.85714286  0.35714286  0.57407407  1
  Ti  Ti8994  1  0.85714286  0.42857143  0.57407407  1
  Ti  Ti8995  1  0.85714286  0.50000000  0.57407407  1
  Ti  Ti8996  1  0.85714286  0.57142857  0.57407407  1
  Ti  Ti8997  1  0.85714286  0.64285714  0.57407407  1
  Ti  Ti8998  1  0.85714286  0.71428571  0.57407407  1
  Ti  Ti8999  1  0.85714286  0.78571429  0.57407407  1
  Ti  Ti9000  1  0.85714286  0.85714286  0.57407407  1
  Ti  Ti9001  1  0.85714286  0.92857143  0.57407407  1
  Ti  Ti9002  1  0.92857143  0.00000000  0.57407407  1
  Ti  Ti9003  1  0.92857143  0.07142857  0.57407407  1
  Ti  Ti9004  1  0.92857143  0.14285714  0.57407407  1
  Ti  Ti9005  1  0.92857143  0.21428571  0.57407407  1
  Ti  Ti9006  1  0.92857143  0.28571429  0.57407407  1
  Ti  Ti9007  1  0.92857143  0.35714286  0.57407407  1
  Ti  Ti9008  1  0.92857143  0.42857143  0.57407407  1
  Ti  Ti9009  1  0.92857143  0.50000000  0.57407407  1
  Ti  Ti9010  1  0.92857143  0.57142857  0.57407407  1
  Ti  Ti9011  1  0.92857143  0.64285714  0.57407407  1
  Ti  Ti9012  1  0.92857143  0.71428571  0.57407407  1
  Ti  Ti9013  1  0.92857143  0.78571429  0.57407407  1
  Ti  Ti9014  1  0.92857143  0.85714286  0.57407407  1
  Ti  Ti9015  1  0.92857143  0.92857143  0.57407407  1
  Ti  Ti9016  1  0.02380950  0.04761907  0.56296296  1
  Ti  Ti9017  1  0.02380950  0.11904764  0.56296296  1
  Ti  Ti9018  1  0.02380950  0.19047621  0.56296296  1
  Ti  Ti9019  1  0.02380950  0.26190479  0.56296296  1
  Ti  Ti9020  1  0.02380950  0.33333336  0.56296296  1
  Ti  Ti9021  1  0.02380950  0.40476193  0.56296296  1
  Ti  Ti9022  1  0.02380950  0.47619050  0.56296296  1
  Ti  Ti9023  1  0.02380950  0.54761907  0.56296296  1
  Ti  Ti9024  1  0.02380950  0.61904764  0.56296296  1
  Ti  Ti9025  1  0.02380950  0.69047621  0.56296296  1
  Ti  Ti9026  1  0.02380950  0.76190479  0.56296296  1
  Ti  Ti9027  1  0.02380950  0.83333336  0.56296296  1
  Ti  Ti9028  1  0.02380950  0.90476193  0.56296296  1
  Ti  Ti9029  1  0.02380950  0.97619050  0.56296296  1
  Ti  Ti9030  1  0.09523807  0.04761907  0.56296296  1
  Ti  Ti9031  1  0.09523807  0.11904764  0.56296296  1
  Ti  Ti9032  1  0.09523807  0.19047621  0.56296296  1
  Ti  Ti9033  1  0.09523807  0.26190479  0.56296296  1
  Ti  Ti9034  1  0.09523807  0.33333336  0.56296296  1
  Ti  Ti9035  1  0.09523807  0.40476193  0.56296296  1
  Ti  Ti9036  1  0.09523807  0.47619050  0.56296296  1
  Ti  Ti9037  1  0.09523807  0.54761907  0.56296296  1
  Ti  Ti9038  1  0.09523807  0.61904764  0.56296296  1
  Ti  Ti9039  1  0.09523807  0.69047621  0.56296296  1
  Ti  Ti9040  1  0.09523807  0.76190479  0.56296296  1
  Ti  Ti9041  1  0.09523807  0.83333336  0.56296296  1
  Ti  Ti9042  1  0.09523807  0.90476193  0.56296296  1
  Ti  Ti9043  1  0.09523807  0.97619050  0.56296296  1
  Ti  Ti9044  1  0.16666664  0.04761907  0.56296296  1
  Ti  Ti9045  1  0.16666664  0.11904764  0.56296296  1
  Ti  Ti9046  1  0.16666664  0.19047621  0.56296296  1
  Ti  Ti9047  1  0.16666664  0.26190479  0.56296296  1
  Ti  Ti9048  1  0.16666664  0.33333336  0.56296296  1
  Ti  Ti9049  1  0.16666664  0.40476193  0.56296296  1
  Ti  Ti9050  1  0.16666664  0.47619050  0.56296296  1
  Ti  Ti9051  1  0.16666664  0.54761907  0.56296296  1
  Ti  Ti9052  1  0.16666664  0.61904764  0.56296296  1
  Ti  Ti9053  1  0.16666664  0.69047621  0.56296296  1
  Ti  Ti9054  1  0.16666664  0.76190479  0.56296296  1
  Ti  Ti9055  1  0.16666664  0.83333336  0.56296296  1
  Ti  Ti9056  1  0.16666664  0.90476193  0.56296296  1
  Ti  Ti9057  1  0.16666664  0.97619050  0.56296296  1
  Ti  Ti9058  1  0.23809521  0.04761907  0.56296296  1
  Ti  Ti9059  1  0.23809521  0.11904764  0.56296296  1
  Ti  Ti9060  1  0.23809521  0.19047621  0.56296296  1
  Ti  Ti9061  1  0.23809521  0.26190479  0.56296296  1
  Ti  Ti9062  1  0.23809521  0.33333336  0.56296296  1
  Ti  Ti9063  1  0.23809521  0.40476193  0.56296296  1
  Ti  Ti9064  1  0.23809521  0.47619050  0.56296296  1
  Ti  Ti9065  1  0.23809521  0.54761907  0.56296296  1
  Ti  Ti9066  1  0.23809521  0.61904764  0.56296296  1
  Ti  Ti9067  1  0.23809521  0.69047621  0.56296296  1
  Ti  Ti9068  1  0.23809521  0.76190479  0.56296296  1
  Ti  Ti9069  1  0.23809521  0.83333336  0.56296296  1
  Ti  Ti9070  1  0.23809521  0.90476193  0.56296296  1
  Ti  Ti9071  1  0.23809521  0.97619050  0.56296296  1
  Ti  Ti9072  1  0.30952379  0.04761907  0.56296296  1
  Ti  Ti9073  1  0.30952379  0.11904764  0.56296296  1
  Ti  Ti9074  1  0.30952379  0.19047621  0.56296296  1
  Ti  Ti9075  1  0.30952379  0.26190479  0.56296296  1
  Ti  Ti9076  1  0.30952379  0.33333336  0.56296296  1
  Ti  Ti9077  1  0.30952379  0.40476193  0.56296296  1
  Ti  Ti9078  1  0.30952379  0.47619050  0.56296296  1
  Ti  Ti9079  1  0.30952379  0.54761907  0.56296296  1
  Ti  Ti9080  1  0.30952379  0.61904764  0.56296296  1
  Ti  Ti9081  1  0.30952379  0.69047621  0.56296296  1
  Ti  Ti9082  1  0.30952379  0.76190479  0.56296296  1
  Ti  Ti9083  1  0.30952379  0.83333336  0.56296296  1
  Ti  Ti9084  1  0.30952379  0.90476193  0.56296296  1
  Ti  Ti9085  1  0.30952379  0.97619050  0.56296296  1
  Ti  Ti9086  1  0.38095236  0.04761907  0.56296296  1
  Ti  Ti9087  1  0.38095236  0.11904764  0.56296296  1
  Ti  Ti9088  1  0.38095236  0.19047621  0.56296296  1
  Ti  Ti9089  1  0.38095236  0.26190479  0.56296296  1
  Ti  Ti9090  1  0.38095236  0.33333336  0.56296296  1
  Ti  Ti9091  1  0.38095236  0.40476193  0.56296296  1
  Ti  Ti9092  1  0.38095236  0.47619050  0.56296296  1
  Ti  Ti9093  1  0.38095236  0.54761907  0.56296296  1
  Ti  Ti9094  1  0.38095236  0.61904764  0.56296296  1
  Ti  Ti9095  1  0.38095236  0.69047621  0.56296296  1
  Ti  Ti9096  1  0.38095236  0.76190479  0.56296296  1
  Ti  Ti9097  1  0.38095236  0.83333336  0.56296296  1
  Ti  Ti9098  1  0.38095236  0.90476193  0.56296296  1
  Ti  Ti9099  1  0.38095236  0.97619050  0.56296296  1
  Ti  Ti9100  1  0.45238093  0.04761907  0.56296296  1
  Ti  Ti9101  1  0.45238093  0.11904764  0.56296296  1
  Ti  Ti9102  1  0.45238093  0.19047621  0.56296296  1
  Ti  Ti9103  1  0.45238093  0.26190479  0.56296296  1
  Ti  Ti9104  1  0.45238093  0.33333336  0.56296296  1
  Ti  Ti9105  1  0.45238093  0.40476193  0.56296296  1
  Ti  Ti9106  1  0.45238093  0.47619050  0.56296296  1
  Ti  Ti9107  1  0.45238093  0.54761907  0.56296296  1
  Ti  Ti9108  1  0.45238093  0.61904764  0.56296296  1
  Ti  Ti9109  1  0.45238093  0.69047621  0.56296296  1
  Ti  Ti9110  1  0.45238093  0.76190479  0.56296296  1
  Ti  Ti9111  1  0.45238093  0.83333336  0.56296296  1
  Ti  Ti9112  1  0.45238093  0.90476193  0.56296296  1
  Ti  Ti9113  1  0.45238093  0.97619050  0.56296296  1
  Ti  Ti9114  1  0.52380950  0.04761907  0.56296296  1
  Ti  Ti9115  1  0.52380950  0.11904764  0.56296296  1
  Ti  Ti9116  1  0.52380950  0.19047621  0.56296296  1
  Ti  Ti9117  1  0.52380950  0.26190479  0.56296296  1
  Ti  Ti9118  1  0.52380950  0.33333336  0.56296296  1
  Ti  Ti9119  1  0.52380950  0.40476193  0.56296296  1
  Ti  Ti9120  1  0.52380950  0.47619050  0.56296296  1
  Ti  Ti9121  1  0.52380950  0.54761907  0.56296296  1
  Ti  Ti9122  1  0.52380950  0.61904764  0.56296296  1
  Ti  Ti9123  1  0.52380950  0.69047621  0.56296296  1
  Ti  Ti9124  1  0.52380950  0.76190479  0.56296296  1
  Ti  Ti9125  1  0.52380950  0.83333336  0.56296296  1
  Ti  Ti9126  1  0.52380950  0.90476193  0.56296296  1
  Ti  Ti9127  1  0.52380950  0.97619050  0.56296296  1
  Ti  Ti9128  1  0.59523807  0.04761907  0.56296296  1
  Ti  Ti9129  1  0.59523807  0.11904764  0.56296296  1
  Ti  Ti9130  1  0.59523807  0.19047621  0.56296296  1
  Ti  Ti9131  1  0.59523807  0.26190479  0.56296296  1
  Ti  Ti9132  1  0.59523807  0.33333336  0.56296296  1
  Ti  Ti9133  1  0.59523807  0.40476193  0.56296296  1
  Ti  Ti9134  1  0.59523807  0.47619050  0.56296296  1
  Ti  Ti9135  1  0.59523807  0.54761907  0.56296296  1
  Ti  Ti9136  1  0.59523807  0.61904764  0.56296296  1
  Ti  Ti9137  1  0.59523807  0.69047621  0.56296296  1
  Ti  Ti9138  1  0.59523807  0.76190479  0.56296296  1
  Ti  Ti9139  1  0.59523807  0.83333336  0.56296296  1
  Ti  Ti9140  1  0.59523807  0.90476193  0.56296296  1
  Ti  Ti9141  1  0.59523807  0.97619050  0.56296296  1
  Ti  Ti9142  1  0.66666664  0.04761907  0.56296296  1
  Ti  Ti9143  1  0.66666664  0.11904764  0.56296296  1
  Ti  Ti9144  1  0.66666664  0.19047621  0.56296296  1
  Ti  Ti9145  1  0.66666664  0.26190479  0.56296296  1
  Ti  Ti9146  1  0.66666664  0.33333336  0.56296296  1
  Ti  Ti9147  1  0.66666664  0.40476193  0.56296296  1
  Ti  Ti9148  1  0.66666664  0.47619050  0.56296296  1
  Ti  Ti9149  1  0.66666664  0.54761907  0.56296296  1
  Ti  Ti9150  1  0.66666664  0.61904764  0.56296296  1
  Ti  Ti9151  1  0.66666664  0.69047621  0.56296296  1
  Ti  Ti9152  1  0.66666664  0.76190479  0.56296296  1
  Ti  Ti9153  1  0.66666664  0.83333336  0.56296296  1
  Ti  Ti9154  1  0.66666664  0.90476193  0.56296296  1
  Ti  Ti9155  1  0.66666664  0.97619050  0.56296296  1
  Ti  Ti9156  1  0.73809521  0.04761907  0.56296296  1
  Ti  Ti9157  1  0.73809521  0.11904764  0.56296296  1
  Ti  Ti9158  1  0.73809521  0.19047621  0.56296296  1
  Ti  Ti9159  1  0.73809521  0.26190479  0.56296296  1
  Ti  Ti9160  1  0.73809521  0.33333336  0.56296296  1
  Ti  Ti9161  1  0.73809521  0.40476193  0.56296296  1
  Ti  Ti9162  1  0.73809521  0.47619050  0.56296296  1
  Ti  Ti9163  1  0.73809521  0.54761907  0.56296296  1
  Ti  Ti9164  1  0.73809521  0.61904764  0.56296296  1
  Ti  Ti9165  1  0.73809521  0.69047621  0.56296296  1
  Ti  Ti9166  1  0.73809521  0.76190479  0.56296296  1
  Ti  Ti9167  1  0.73809521  0.83333336  0.56296296  1
  Ti  Ti9168  1  0.73809521  0.90476193  0.56296296  1
  Ti  Ti9169  1  0.73809521  0.97619050  0.56296296  1
  Ti  Ti9170  1  0.80952379  0.04761907  0.56296296  1
  Ti  Ti9171  1  0.80952379  0.11904764  0.56296296  1
  Ti  Ti9172  1  0.80952379  0.19047621  0.56296296  1
  Ti  Ti9173  1  0.80952379  0.26190479  0.56296296  1
  Ti  Ti9174  1  0.80952379  0.33333336  0.56296296  1
  Ti  Ti9175  1  0.80952379  0.40476193  0.56296296  1
  Ti  Ti9176  1  0.80952379  0.47619050  0.56296296  1
  Ti  Ti9177  1  0.80952379  0.54761907  0.56296296  1
  Ti  Ti9178  1  0.80952379  0.61904764  0.56296296  1
  Ti  Ti9179  1  0.80952379  0.69047621  0.56296296  1
  Ti  Ti9180  1  0.80952379  0.76190479  0.56296296  1
  Ti  Ti9181  1  0.80952379  0.83333336  0.56296296  1
  Ti  Ti9182  1  0.80952379  0.90476193  0.56296296  1
  Ti  Ti9183  1  0.80952379  0.97619050  0.56296296  1
  Ti  Ti9184  1  0.88095236  0.04761907  0.56296296  1
  Ti  Ti9185  1  0.88095236  0.11904764  0.56296296  1
  Ti  Ti9186  1  0.88095236  0.19047621  0.56296296  1
  Ti  Ti9187  1  0.88095236  0.26190479  0.56296296  1
  Ti  Ti9188  1  0.88095236  0.33333336  0.56296296  1
  Ti  Ti9189  1  0.88095236  0.40476193  0.56296296  1
  Ti  Ti9190  1  0.88095236  0.47619050  0.56296296  1
  Ti  Ti9191  1  0.88095236  0.54761907  0.56296296  1
  Ti  Ti9192  1  0.88095236  0.61904764  0.56296296  1
  Ti  Ti9193  1  0.88095236  0.69047621  0.56296296  1
  Ti  Ti9194  1  0.88095236  0.76190479  0.56296296  1
  Ti  Ti9195  1  0.88095236  0.83333336  0.56296296  1
  Ti  Ti9196  1  0.88095236  0.90476193  0.56296296  1
  Ti  Ti9197  1  0.88095236  0.97619050  0.56296296  1
  Ti  Ti9198  1  0.95238093  0.04761907  0.56296296  1
  Ti  Ti9199  1  0.95238093  0.11904764  0.56296296  1
  Ti  Ti9200  1  0.95238093  0.19047621  0.56296296  1
  Ti  Ti9201  1  0.95238093  0.26190479  0.56296296  1
  Ti  Ti9202  1  0.95238093  0.33333336  0.56296296  1
  Ti  Ti9203  1  0.95238093  0.40476193  0.56296296  1
  Ti  Ti9204  1  0.95238093  0.47619050  0.56296296  1
  Ti  Ti9205  1  0.95238093  0.54761907  0.56296296  1
  Ti  Ti9206  1  0.95238093  0.61904764  0.56296296  1
  Ti  Ti9207  1  0.95238093  0.69047621  0.56296296  1
  Ti  Ti9208  1  0.95238093  0.76190479  0.56296296  1
  Ti  Ti9209  1  0.95238093  0.83333336  0.56296296  1
  Ti  Ti9210  1  0.95238093  0.90476193  0.56296296  1
  Ti  Ti9211  1  0.95238093  0.97619050  0.56296296  1
  Ti  Ti9212  1  0.04761907  0.02380950  0.56296296  1
  Ti  Ti9213  1  0.04761907  0.09523807  0.56296296  1
  Ti  Ti9214  1  0.04761907  0.16666664  0.56296296  1
  Ti  Ti9215  1  0.04761907  0.23809521  0.56296296  1
  Ti  Ti9216  1  0.04761907  0.30952379  0.56296296  1
  Ti  Ti9217  1  0.04761907  0.38095236  0.56296296  1
  Ti  Ti9218  1  0.04761907  0.45238093  0.56296296  1
  Ti  Ti9219  1  0.04761907  0.52380950  0.56296296  1
  Ti  Ti9220  1  0.04761907  0.59523807  0.56296296  1
  Ti  Ti9221  1  0.04761907  0.66666664  0.56296296  1
  Ti  Ti9222  1  0.04761907  0.73809521  0.56296296  1
  Ti  Ti9223  1  0.04761907  0.80952379  0.56296296  1
  Ti  Ti9224  1  0.04761907  0.88095236  0.56296296  1
  Ti  Ti9225  1  0.04761907  0.95238093  0.56296296  1
  Ti  Ti9226  1  0.11904764  0.02380950  0.56296296  1
  Ti  Ti9227  1  0.11904764  0.09523807  0.56296296  1
  Ti  Ti9228  1  0.11904764  0.16666664  0.56296296  1
  Ti  Ti9229  1  0.11904764  0.23809521  0.56296296  1
  Ti  Ti9230  1  0.11904764  0.30952379  0.56296296  1
  Ti  Ti9231  1  0.11904764  0.38095236  0.56296296  1
  Ti  Ti9232  1  0.11904764  0.45238093  0.56296296  1
  Ti  Ti9233  1  0.11904764  0.52380950  0.56296296  1
  Ti  Ti9234  1  0.11904764  0.59523807  0.56296296  1
  Ti  Ti9235  1  0.11904764  0.66666664  0.56296296  1
  Ti  Ti9236  1  0.11904764  0.73809521  0.56296296  1
  Ti  Ti9237  1  0.11904764  0.80952379  0.56296296  1
  Ti  Ti9238  1  0.11904764  0.88095236  0.56296296  1
  Ti  Ti9239  1  0.11904764  0.95238093  0.56296296  1
  Ti  Ti9240  1  0.19047621  0.02380950  0.56296296  1
  Ti  Ti9241  1  0.19047621  0.09523807  0.56296296  1
  Ti  Ti9242  1  0.19047621  0.16666664  0.56296296  1
  Ti  Ti9243  1  0.19047621  0.23809521  0.56296296  1
  Ti  Ti9244  1  0.19047621  0.30952379  0.56296296  1
  Ti  Ti9245  1  0.19047621  0.38095236  0.56296296  1
  Ti  Ti9246  1  0.19047621  0.45238093  0.56296296  1
  Ti  Ti9247  1  0.19047621  0.52380950  0.56296296  1
  Ti  Ti9248  1  0.19047621  0.59523807  0.56296296  1
  Ti  Ti9249  1  0.19047621  0.66666664  0.56296296  1
  Ti  Ti9250  1  0.19047621  0.73809521  0.56296296  1
  Ti  Ti9251  1  0.19047621  0.80952379  0.56296296  1
  Ti  Ti9252  1  0.19047621  0.88095236  0.56296296  1
  Ti  Ti9253  1  0.19047621  0.95238093  0.56296296  1
  Ti  Ti9254  1  0.26190479  0.02380950  0.56296296  1
  Ti  Ti9255  1  0.26190479  0.09523807  0.56296296  1
  Ti  Ti9256  1  0.26190479  0.16666664  0.56296296  1
  Ti  Ti9257  1  0.26190479  0.23809521  0.56296296  1
  Ti  Ti9258  1  0.26190479  0.30952379  0.56296296  1
  Ti  Ti9259  1  0.26190479  0.38095236  0.56296296  1
  Ti  Ti9260  1  0.26190479  0.45238093  0.56296296  1
  Ti  Ti9261  1  0.26190479  0.52380950  0.56296296  1
  Ti  Ti9262  1  0.26190479  0.59523807  0.56296296  1
  Ti  Ti9263  1  0.26190479  0.66666664  0.56296296  1
  Ti  Ti9264  1  0.26190479  0.73809521  0.56296296  1
  Ti  Ti9265  1  0.26190479  0.80952379  0.56296296  1
  Ti  Ti9266  1  0.26190479  0.88095236  0.56296296  1
  Ti  Ti9267  1  0.26190479  0.95238093  0.56296296  1
  Ti  Ti9268  1  0.33333336  0.02380950  0.56296296  1
  Ti  Ti9269  1  0.33333336  0.09523807  0.56296296  1
  Ti  Ti9270  1  0.33333336  0.16666664  0.56296296  1
  Ti  Ti9271  1  0.33333336  0.23809521  0.56296296  1
  Ti  Ti9272  1  0.33333336  0.30952379  0.56296296  1
  Ti  Ti9273  1  0.33333336  0.38095236  0.56296296  1
  Ti  Ti9274  1  0.33333336  0.45238093  0.56296296  1
  Ti  Ti9275  1  0.33333336  0.52380950  0.56296296  1
  Ti  Ti9276  1  0.33333336  0.59523807  0.56296296  1
  Ti  Ti9277  1  0.33333336  0.66666664  0.56296296  1
  Ti  Ti9278  1  0.33333336  0.73809521  0.56296296  1
  Ti  Ti9279  1  0.33333336  0.80952379  0.56296296  1
  Ti  Ti9280  1  0.33333336  0.88095236  0.56296296  1
  Ti  Ti9281  1  0.33333336  0.95238093  0.56296296  1
  Ti  Ti9282  1  0.40476193  0.02380950  0.56296296  1
  Ti  Ti9283  1  0.40476193  0.09523807  0.56296296  1
  Ti  Ti9284  1  0.40476193  0.16666664  0.56296296  1
  Ti  Ti9285  1  0.40476193  0.23809521  0.56296296  1
  Ti  Ti9286  1  0.40476193  0.30952379  0.56296296  1
  Ti  Ti9287  1  0.40476193  0.38095236  0.56296296  1
  Ti  Ti9288  1  0.40476193  0.45238093  0.56296296  1
  Ti  Ti9289  1  0.40476193  0.52380950  0.56296296  1
  Ti  Ti9290  1  0.40476193  0.59523807  0.56296296  1
  Ti  Ti9291  1  0.40476193  0.66666664  0.56296296  1
  Ti  Ti9292  1  0.40476193  0.73809521  0.56296296  1
  Ti  Ti9293  1  0.40476193  0.80952379  0.56296296  1
  Ti  Ti9294  1  0.40476193  0.88095236  0.56296296  1
  Ti  Ti9295  1  0.40476193  0.95238093  0.56296296  1
  Ti  Ti9296  1  0.47619050  0.02380950  0.56296296  1
  Ti  Ti9297  1  0.47619050  0.09523807  0.56296296  1
  Ti  Ti9298  1  0.47619050  0.16666664  0.56296296  1
  Ti  Ti9299  1  0.47619050  0.23809521  0.56296296  1
  Ti  Ti9300  1  0.47619050  0.30952379  0.56296296  1
  Ti  Ti9301  1  0.47619050  0.38095236  0.56296296  1
  Ti  Ti9302  1  0.47619050  0.45238093  0.56296296  1
  Ti  Ti9303  1  0.47619050  0.52380950  0.56296296  1
  Ti  Ti9304  1  0.47619050  0.59523807  0.56296296  1
  Ti  Ti9305  1  0.47619050  0.66666664  0.56296296  1
  Ti  Ti9306  1  0.47619050  0.73809521  0.56296296  1
  Ti  Ti9307  1  0.47619050  0.80952379  0.56296296  1
  Ti  Ti9308  1  0.47619050  0.88095236  0.56296296  1
  Ti  Ti9309  1  0.47619050  0.95238093  0.56296296  1
  Ti  Ti9310  1  0.54761907  0.02380950  0.56296296  1
  Ti  Ti9311  1  0.54761907  0.09523807  0.56296296  1
  Ti  Ti9312  1  0.54761907  0.16666664  0.56296296  1
  Ti  Ti9313  1  0.54761907  0.23809521  0.56296296  1
  Ti  Ti9314  1  0.54761907  0.30952379  0.56296296  1
  Ti  Ti9315  1  0.54761907  0.38095236  0.56296296  1
  Ti  Ti9316  1  0.54761907  0.45238093  0.56296296  1
  Ti  Ti9317  1  0.54761907  0.52380950  0.56296296  1
  Ti  Ti9318  1  0.54761907  0.59523807  0.56296296  1
  Ti  Ti9319  1  0.54761907  0.66666664  0.56296296  1
  Ti  Ti9320  1  0.54761907  0.73809521  0.56296296  1
  Ti  Ti9321  1  0.54761907  0.80952379  0.56296296  1
  Ti  Ti9322  1  0.54761907  0.88095236  0.56296296  1
  Ti  Ti9323  1  0.54761907  0.95238093  0.56296296  1
  Ti  Ti9324  1  0.61904764  0.02380950  0.56296296  1
  Ti  Ti9325  1  0.61904764  0.09523807  0.56296296  1
  Ti  Ti9326  1  0.61904764  0.16666664  0.56296296  1
  Ti  Ti9327  1  0.61904764  0.23809521  0.56296296  1
  Ti  Ti9328  1  0.61904764  0.30952379  0.56296296  1
  Ti  Ti9329  1  0.61904764  0.38095236  0.56296296  1
  Ti  Ti9330  1  0.61904764  0.45238093  0.56296296  1
  Ti  Ti9331  1  0.61904764  0.52380950  0.56296296  1
  Ti  Ti9332  1  0.61904764  0.59523807  0.56296296  1
  Ti  Ti9333  1  0.61904764  0.66666664  0.56296296  1
  Ti  Ti9334  1  0.61904764  0.73809521  0.56296296  1
  Ti  Ti9335  1  0.61904764  0.80952379  0.56296296  1
  Ti  Ti9336  1  0.61904764  0.88095236  0.56296296  1
  Ti  Ti9337  1  0.61904764  0.95238093  0.56296296  1
  Ti  Ti9338  1  0.69047621  0.02380950  0.56296296  1
  Ti  Ti9339  1  0.69047621  0.09523807  0.56296296  1
  Ti  Ti9340  1  0.69047621  0.16666664  0.56296296  1
  Ti  Ti9341  1  0.69047621  0.23809521  0.56296296  1
  Ti  Ti9342  1  0.69047621  0.30952379  0.56296296  1
  Ti  Ti9343  1  0.69047621  0.38095236  0.56296296  1
  Ti  Ti9344  1  0.69047621  0.45238093  0.56296296  1
  Ti  Ti9345  1  0.69047621  0.52380950  0.56296296  1
  Ti  Ti9346  1  0.69047621  0.59523807  0.56296296  1
  Ti  Ti9347  1  0.69047621  0.66666664  0.56296296  1
  Ti  Ti9348  1  0.69047621  0.73809521  0.56296296  1
  Ti  Ti9349  1  0.69047621  0.80952379  0.56296296  1
  Ti  Ti9350  1  0.69047621  0.88095236  0.56296296  1
  Ti  Ti9351  1  0.69047621  0.95238093  0.56296296  1
  Ti  Ti9352  1  0.76190479  0.02380950  0.56296296  1
  Ti  Ti9353  1  0.76190479  0.09523807  0.56296296  1
  Ti  Ti9354  1  0.76190479  0.16666664  0.56296296  1
  Ti  Ti9355  1  0.76190479  0.23809521  0.56296296  1
  Ti  Ti9356  1  0.76190479  0.30952379  0.56296296  1
  Ti  Ti9357  1  0.76190479  0.38095236  0.56296296  1
  Ti  Ti9358  1  0.76190479  0.45238093  0.56296296  1
  Ti  Ti9359  1  0.76190479  0.52380950  0.56296296  1
  Ti  Ti9360  1  0.76190479  0.59523807  0.56296296  1
  Ti  Ti9361  1  0.76190479  0.66666664  0.56296296  1
  Ti  Ti9362  1  0.76190479  0.73809521  0.56296296  1
  Ti  Ti9363  1  0.76190479  0.80952379  0.56296296  1
  Ti  Ti9364  1  0.76190479  0.88095236  0.56296296  1
  Ti  Ti9365  1  0.76190479  0.95238093  0.56296296  1
  Ti  Ti9366  1  0.83333336  0.02380950  0.56296296  1
  Ti  Ti9367  1  0.83333336  0.09523807  0.56296296  1
  Ti  Ti9368  1  0.83333336  0.16666664  0.56296296  1
  Ti  Ti9369  1  0.83333336  0.23809521  0.56296296  1
  Ti  Ti9370  1  0.83333336  0.30952379  0.56296296  1
  Ti  Ti9371  1  0.83333336  0.38095236  0.56296296  1
  Ti  Ti9372  1  0.83333336  0.45238093  0.56296296  1
  Ti  Ti9373  1  0.83333336  0.52380950  0.56296296  1
  Ti  Ti9374  1  0.83333336  0.59523807  0.56296296  1
  Ti  Ti9375  1  0.83333336  0.66666664  0.56296296  1
  Ti  Ti9376  1  0.83333336  0.73809521  0.56296296  1
  Ti  Ti9377  1  0.83333336  0.80952379  0.56296296  1
  Ti  Ti9378  1  0.83333336  0.88095236  0.56296296  1
  Ti  Ti9379  1  0.83333336  0.95238093  0.56296296  1
  Ti  Ti9380  1  0.90476193  0.02380950  0.56296296  1
  Ti  Ti9381  1  0.90476193  0.09523807  0.56296296  1
  Ti  Ti9382  1  0.90476193  0.16666664  0.56296296  1
  Ti  Ti9383  1  0.90476193  0.23809521  0.56296296  1
  Ti  Ti9384  1  0.90476193  0.30952379  0.56296296  1
  Ti  Ti9385  1  0.90476193  0.38095236  0.56296296  1
  Ti  Ti9386  1  0.90476193  0.45238093  0.56296296  1
  Ti  Ti9387  1  0.90476193  0.52380950  0.56296296  1
  Ti  Ti9388  1  0.90476193  0.59523807  0.56296296  1
  Ti  Ti9389  1  0.90476193  0.66666664  0.56296296  1
  Ti  Ti9390  1  0.90476193  0.73809521  0.56296296  1
  Ti  Ti9391  1  0.90476193  0.80952379  0.56296296  1
  Ti  Ti9392  1  0.90476193  0.88095236  0.56296296  1
  Ti  Ti9393  1  0.90476193  0.95238093  0.56296296  1
  Ti  Ti9394  1  0.97619050  0.02380950  0.56296296  1
  Ti  Ti9395  1  0.97619050  0.09523807  0.56296296  1
  Ti  Ti9396  1  0.97619050  0.16666664  0.56296296  1
  Ti  Ti9397  1  0.97619050  0.23809521  0.56296296  1
  Ti  Ti9398  1  0.97619050  0.30952379  0.56296296  1
  Ti  Ti9399  1  0.97619050  0.38095236  0.56296296  1
  Ti  Ti9400  1  0.97619050  0.45238093  0.56296296  1
  Ti  Ti9401  1  0.97619050  0.52380950  0.56296296  1
  Ti  Ti9402  1  0.97619050  0.59523807  0.56296296  1
  Ti  Ti9403  1  0.97619050  0.66666664  0.56296296  1
  Ti  Ti9404  1  0.97619050  0.73809521  0.56296296  1
  Ti  Ti9405  1  0.97619050  0.80952379  0.56296296  1
  Ti  Ti9406  1  0.97619050  0.88095236  0.56296296  1
  Ti  Ti9407  1  0.97619050  0.95238093  0.56296296  1
  Ti  Ti9408  1  0.00000000  0.00000000  0.59629630  1
  Ti  Ti9409  1  0.00000000  0.07142857  0.59629630  1
  Ti  Ti9410  1  0.00000000  0.14285714  0.59629630  1
  Ti  Ti9411  1  0.00000000  0.21428571  0.59629630  1
  Ti  Ti9412  1  0.00000000  0.28571429  0.59629630  1
  Ti  Ti9413  1  0.00000000  0.35714286  0.59629630  1
  Ti  Ti9414  1  0.00000000  0.42857143  0.59629630  1
  Ti  Ti9415  1  0.00000000  0.50000000  0.59629630  1
  Ti  Ti9416  1  0.00000000  0.57142857  0.59629630  1
  Ti  Ti9417  1  0.00000000  0.64285714  0.59629630  1
  Ti  Ti9418  1  0.00000000  0.71428571  0.59629630  1
  Ti  Ti9419  1  1.00000000  0.78571429  0.59629630  1
  Ti  Ti9420  1  0.00000000  0.85714286  0.59629630  1
  Ti  Ti9421  1  0.00000000  0.92857143  0.59629630  1
  Ti  Ti9422  1  0.07142857  0.00000000  0.59629630  1
  Ti  Ti9423  1  0.07142857  0.07142857  0.59629630  1
  Ti  Ti9424  1  0.07142857  0.14285714  0.59629630  1
  Ti  Ti9425  1  0.07142857  0.21428571  0.59629630  1
  Ti  Ti9426  1  0.07142857  0.28571429  0.59629630  1
  Ti  Ti9427  1  0.07142857  0.35714286  0.59629630  1
  Ti  Ti9428  1  0.07142857  0.42857143  0.59629630  1
  Ti  Ti9429  1  0.07142857  0.50000000  0.59629630  1
  Ti  Ti9430  1  0.07142857  0.57142857  0.59629630  1
  Ti  Ti9431  1  0.07142857  0.64285714  0.59629630  1
  Ti  Ti9432  1  0.07142857  0.71428571  0.59629630  1
  Ti  Ti9433  1  0.07142857  0.78571429  0.59629630  1
  Ti  Ti9434  1  0.07142857  0.85714286  0.59629630  1
  Ti  Ti9435  1  0.07142857  0.92857143  0.59629630  1
  Ti  Ti9436  1  0.14285714  0.00000000  0.59629630  1
  Ti  Ti9437  1  0.14285714  0.07142857  0.59629630  1
  Ti  Ti9438  1  0.14285714  0.14285714  0.59629630  1
  Ti  Ti9439  1  0.14285714  0.21428571  0.59629630  1
  Ti  Ti9440  1  0.14285714  0.28571429  0.59629630  1
  Ti  Ti9441  1  0.14285714  0.35714286  0.59629630  1
  Ti  Ti9442  1  0.14285714  0.42857143  0.59629630  1
  Ti  Ti9443  1  0.14285714  0.50000000  0.59629630  1
  Ti  Ti9444  1  0.14285714  0.57142857  0.59629630  1
  Ti  Ti9445  1  0.14285714  0.64285714  0.59629630  1
  Ti  Ti9446  1  0.14285714  0.71428571  0.59629630  1
  Ti  Ti9447  1  0.14285714  0.78571429  0.59629630  1
  Ti  Ti9448  1  0.14285714  0.85714286  0.59629630  1
  Ti  Ti9449  1  0.14285714  0.92857143  0.59629630  1
  Ti  Ti9450  1  0.21428571  0.00000000  0.59629630  1
  Ti  Ti9451  1  0.21428571  0.07142857  0.59629630  1
  Ti  Ti9452  1  0.21428571  0.14285714  0.59629630  1
  Ti  Ti9453  1  0.21428571  0.21428571  0.59629630  1
  Ti  Ti9454  1  0.21428571  0.28571429  0.59629630  1
  Ti  Ti9455  1  0.21428571  0.35714286  0.59629630  1
  Ti  Ti9456  1  0.21428571  0.42857143  0.59629630  1
  Ti  Ti9457  1  0.21428571  0.50000000  0.59629630  1
  Ti  Ti9458  1  0.21428571  0.57142857  0.59629630  1
  Ti  Ti9459  1  0.21428571  0.64285714  0.59629630  1
  Ti  Ti9460  1  0.21428571  0.71428571  0.59629630  1
  Ti  Ti9461  1  0.21428571  0.78571429  0.59629630  1
  Ti  Ti9462  1  0.21428571  0.85714286  0.59629630  1
  Ti  Ti9463  1  0.21428571  0.92857143  0.59629630  1
  Ti  Ti9464  1  0.28571429  0.00000000  0.59629630  1
  Ti  Ti9465  1  0.28571429  0.07142857  0.59629630  1
  Ti  Ti9466  1  0.28571429  0.14285714  0.59629630  1
  Ti  Ti9467  1  0.28571429  0.21428571  0.59629630  1
  Ti  Ti9468  1  0.28571429  0.28571429  0.59629630  1
  Ti  Ti9469  1  0.28571429  0.35714286  0.59629630  1
  Ti  Ti9470  1  0.28571429  0.42857143  0.59629630  1
  Ti  Ti9471  1  0.28571429  0.50000000  0.59629630  1
  Ti  Ti9472  1  0.28571429  0.57142857  0.59629630  1
  Ti  Ti9473  1  0.28571429  0.64285714  0.59629630  1
  Ti  Ti9474  1  0.28571429  0.71428571  0.59629630  1
  Ti  Ti9475  1  0.28571429  0.78571429  0.59629630  1
  Ti  Ti9476  1  0.28571429  0.85714286  0.59629630  1
  Ti  Ti9477  1  0.28571429  0.92857143  0.59629630  1
  Ti  Ti9478  1  0.35714286  0.00000000  0.59629630  1
  Ti  Ti9479  1  0.35714286  0.07142857  0.59629630  1
  Ti  Ti9480  1  0.35714286  0.14285714  0.59629630  1
  Ti  Ti9481  1  0.35714286  0.21428571  0.59629630  1
  Ti  Ti9482  1  0.35714286  0.28571429  0.59629630  1
  Ti  Ti9483  1  0.35714286  0.35714286  0.59629630  1
  Ti  Ti9484  1  0.35714286  0.42857143  0.59629630  1
  Ti  Ti9485  1  0.35714286  0.50000000  0.59629630  1
  Ti  Ti9486  1  0.35714286  0.57142857  0.59629630  1
  Ti  Ti9487  1  0.35714286  0.64285714  0.59629630  1
  Ti  Ti9488  1  0.35714286  0.71428571  0.59629630  1
  Ti  Ti9489  1  0.35714286  0.78571429  0.59629630  1
  Ti  Ti9490  1  0.35714286  0.85714286  0.59629630  1
  Ti  Ti9491  1  0.35714286  0.92857143  0.59629630  1
  Ti  Ti9492  1  0.42857143  0.00000000  0.59629630  1
  Ti  Ti9493  1  0.42857143  0.07142857  0.59629630  1
  Ti  Ti9494  1  0.42857143  0.14285714  0.59629630  1
  Ti  Ti9495  1  0.42857143  0.21428571  0.59629630  1
  Ti  Ti9496  1  0.42857143  0.28571429  0.59629630  1
  Ti  Ti9497  1  0.42857143  0.35714286  0.59629630  1
  Ti  Ti9498  1  0.42857143  0.42857143  0.59629630  1
  Ti  Ti9499  1  0.42857143  0.50000000  0.59629630  1
  Ti  Ti9500  1  0.42857143  0.57142857  0.59629630  1
  Ti  Ti9501  1  0.42857143  0.64285714  0.59629630  1
  Ti  Ti9502  1  0.42857143  0.71428571  0.59629630  1
  Ti  Ti9503  1  0.42857143  0.78571429  0.59629630  1
  Ti  Ti9504  1  0.42857143  0.85714286  0.59629630  1
  Ti  Ti9505  1  0.42857143  0.92857143  0.59629630  1
  Ti  Ti9506  1  0.50000000  0.00000000  0.59629630  1
  Ti  Ti9507  1  0.50000000  0.07142857  0.59629630  1
  Ti  Ti9508  1  0.50000000  0.14285714  0.59629630  1
  Ti  Ti9509  1  0.50000000  0.21428571  0.59629630  1
  Ti  Ti9510  1  0.50000000  0.28571429  0.59629630  1
  Ti  Ti9511  1  0.50000000  0.35714286  0.59629630  1
  Ti  Ti9512  1  0.50000000  0.42857143  0.59629630  1
  Ti  Ti9513  1  0.50000000  0.50000000  0.59629630  1
  Ti  Ti9514  1  0.50000000  0.57142857  0.59629630  1
  Ti  Ti9515  1  0.50000000  0.64285714  0.59629630  1
  Ti  Ti9516  1  0.50000000  0.71428571  0.59629630  1
  Ti  Ti9517  1  0.50000000  0.78571429  0.59629630  1
  Ti  Ti9518  1  0.50000000  0.85714286  0.59629630  1
  Ti  Ti9519  1  0.50000000  0.92857143  0.59629630  1
  Ti  Ti9520  1  0.57142857  0.00000000  0.59629630  1
  Ti  Ti9521  1  0.57142857  0.07142857  0.59629630  1
  Ti  Ti9522  1  0.57142857  0.14285714  0.59629630  1
  Ti  Ti9523  1  0.57142857  0.21428571  0.59629630  1
  Ti  Ti9524  1  0.57142857  0.28571429  0.59629630  1
  Ti  Ti9525  1  0.57142857  0.35714286  0.59629630  1
  Ti  Ti9526  1  0.57142857  0.42857143  0.59629630  1
  Ti  Ti9527  1  0.57142857  0.50000000  0.59629630  1
  Ti  Ti9528  1  0.57142857  0.57142857  0.59629630  1
  Ti  Ti9529  1  0.57142857  0.64285714  0.59629630  1
  Ti  Ti9530  1  0.57142857  0.71428571  0.59629630  1
  Ti  Ti9531  1  0.57142857  0.78571429  0.59629630  1
  Ti  Ti9532  1  0.57142857  0.85714286  0.59629630  1
  Ti  Ti9533  1  0.57142857  0.92857143  0.59629630  1
  Ti  Ti9534  1  0.64285714  0.00000000  0.59629630  1
  Ti  Ti9535  1  0.64285714  0.07142857  0.59629630  1
  Ti  Ti9536  1  0.64285714  0.14285714  0.59629630  1
  Ti  Ti9537  1  0.64285714  0.21428571  0.59629630  1
  Ti  Ti9538  1  0.64285714  0.28571429  0.59629630  1
  Ti  Ti9539  1  0.64285714  0.35714286  0.59629630  1
  Ti  Ti9540  1  0.64285714  0.42857143  0.59629630  1
  Ti  Ti9541  1  0.64285714  0.50000000  0.59629630  1
  Ti  Ti9542  1  0.64285714  0.57142857  0.59629630  1
  Ti  Ti9543  1  0.64285714  0.64285714  0.59629630  1
  Ti  Ti9544  1  0.64285714  0.71428571  0.59629630  1
  Ti  Ti9545  1  0.64285714  0.78571429  0.59629630  1
  Ti  Ti9546  1  0.64285714  0.85714286  0.59629630  1
  Ti  Ti9547  1  0.64285714  0.92857143  0.59629630  1
  Ti  Ti9548  1  0.71428571  0.00000000  0.59629630  1
  Ti  Ti9549  1  0.71428571  0.07142857  0.59629630  1
  Ti  Ti9550  1  0.71428571  0.14285714  0.59629630  1
  Ti  Ti9551  1  0.71428571  0.21428571  0.59629630  1
  Ti  Ti9552  1  0.71428571  0.28571429  0.59629630  1
  Ti  Ti9553  1  0.71428571  0.35714286  0.59629630  1
  Ti  Ti9554  1  0.71428571  0.42857143  0.59629630  1
  Ti  Ti9555  1  0.71428571  0.50000000  0.59629630  1
  Ti  Ti9556  1  0.71428571  0.57142857  0.59629630  1
  Ti  Ti9557  1  0.71428571  0.64285714  0.59629630  1
  Ti  Ti9558  1  0.71428571  0.71428571  0.59629630  1
  Ti  Ti9559  1  0.71428571  0.78571429  0.59629630  1
  Ti  Ti9560  1  0.71428571  0.85714286  0.59629630  1
  Ti  Ti9561  1  0.71428571  0.92857143  0.59629630  1
  Ti  Ti9562  1  0.78571429  0.00000000  0.59629630  1
  Ti  Ti9563  1  0.78571429  0.07142857  0.59629630  1
  Ti  Ti9564  1  0.78571429  0.14285714  0.59629630  1
  Ti  Ti9565  1  0.78571429  0.21428571  0.59629630  1
  Ti  Ti9566  1  0.78571429  0.28571429  0.59629630  1
  Ti  Ti9567  1  0.78571429  0.35714286  0.59629630  1
  Ti  Ti9568  1  0.78571429  0.42857143  0.59629630  1
  Ti  Ti9569  1  0.78571429  0.50000000  0.59629630  1
  Ti  Ti9570  1  0.78571429  0.57142857  0.59629630  1
  Ti  Ti9571  1  0.78571429  0.64285714  0.59629630  1
  Ti  Ti9572  1  0.78571429  0.71428571  0.59629630  1
  Ti  Ti9573  1  0.78571429  0.78571429  0.59629630  1
  Ti  Ti9574  1  0.78571429  0.85714286  0.59629630  1
  Ti  Ti9575  1  0.78571429  0.92857143  0.59629630  1
  Ti  Ti9576  1  0.85714286  0.00000000  0.59629630  1
  Ti  Ti9577  1  0.85714286  0.07142857  0.59629630  1
  Ti  Ti9578  1  0.85714286  0.14285714  0.59629630  1
  Ti  Ti9579  1  0.85714286  0.21428571  0.59629630  1
  Ti  Ti9580  1  0.85714286  0.28571429  0.59629630  1
  Ti  Ti9581  1  0.85714286  0.35714286  0.59629630  1
  Ti  Ti9582  1  0.85714286  0.42857143  0.59629630  1
  Ti  Ti9583  1  0.85714286  0.50000000  0.59629630  1
  Ti  Ti9584  1  0.85714286  0.57142857  0.59629630  1
  Ti  Ti9585  1  0.85714286  0.64285714  0.59629630  1
  Ti  Ti9586  1  0.85714286  0.71428571  0.59629630  1
  Ti  Ti9587  1  0.85714286  0.78571429  0.59629630  1
  Ti  Ti9588  1  0.85714286  0.85714286  0.59629630  1
  Ti  Ti9589  1  0.85714286  0.92857143  0.59629630  1
  Ti  Ti9590  1  0.92857143  0.00000000  0.59629630  1
  Ti  Ti9591  1  0.92857143  0.07142857  0.59629630  1
  Ti  Ti9592  1  0.92857143  0.14285714  0.59629630  1
  Ti  Ti9593  1  0.92857143  0.21428571  0.59629630  1
  Ti  Ti9594  1  0.92857143  0.28571429  0.59629630  1
  Ti  Ti9595  1  0.92857143  0.35714286  0.59629630  1
  Ti  Ti9596  1  0.92857143  0.42857143  0.59629630  1
  Ti  Ti9597  1  0.92857143  0.50000000  0.59629630  1
  Ti  Ti9598  1  0.92857143  0.57142857  0.59629630  1
  Ti  Ti9599  1  0.92857143  0.64285714  0.59629630  1
  Ti  Ti9600  1  0.92857143  0.71428571  0.59629630  1
  Ti  Ti9601  1  0.92857143  0.78571429  0.59629630  1
  Ti  Ti9602  1  0.92857143  0.85714286  0.59629630  1
  Ti  Ti9603  1  0.92857143  0.92857143  0.59629630  1
  Ti  Ti9604  1  0.02380950  0.04761907  0.58518519  1
  Ti  Ti9605  1  0.02380950  0.11904764  0.58518519  1
  Ti  Ti9606  1  0.02380950  0.19047621  0.58518519  1
  Ti  Ti9607  1  0.02380950  0.26190479  0.58518519  1
  Ti  Ti9608  1  0.02380950  0.33333336  0.58518519  1
  Ti  Ti9609  1  0.02380950  0.40476193  0.58518519  1
  Ti  Ti9610  1  0.02380950  0.47619050  0.58518519  1
  Ti  Ti9611  1  0.02380950  0.54761907  0.58518519  1
  Ti  Ti9612  1  0.02380950  0.61904764  0.58518519  1
  Ti  Ti9613  1  0.02380950  0.69047621  0.58518519  1
  Ti  Ti9614  1  0.02380950  0.76190479  0.58518519  1
  Ti  Ti9615  1  0.02380950  0.83333336  0.58518519  1
  Ti  Ti9616  1  0.02380950  0.90476193  0.58518519  1
  Ti  Ti9617  1  0.02380950  0.97619050  0.58518519  1
  Ti  Ti9618  1  0.09523807  0.04761907  0.58518519  1
  Ti  Ti9619  1  0.09523807  0.11904764  0.58518519  1
  Ti  Ti9620  1  0.09523807  0.19047621  0.58518519  1
  Ti  Ti9621  1  0.09523807  0.26190479  0.58518519  1
  Ti  Ti9622  1  0.09523807  0.33333336  0.58518519  1
  Ti  Ti9623  1  0.09523807  0.40476193  0.58518519  1
  Ti  Ti9624  1  0.09523807  0.47619050  0.58518519  1
  Ti  Ti9625  1  0.09523807  0.54761907  0.58518519  1
  Ti  Ti9626  1  0.09523807  0.61904764  0.58518519  1
  Ti  Ti9627  1  0.09523807  0.69047621  0.58518519  1
  Ti  Ti9628  1  0.09523807  0.76190479  0.58518519  1
  Ti  Ti9629  1  0.09523807  0.83333336  0.58518519  1
  Ti  Ti9630  1  0.09523807  0.90476193  0.58518519  1
  Ti  Ti9631  1  0.09523807  0.97619050  0.58518519  1
  Ti  Ti9632  1  0.16666664  0.04761907  0.58518519  1
  Ti  Ti9633  1  0.16666664  0.11904764  0.58518519  1
  Ti  Ti9634  1  0.16666664  0.19047621  0.58518519  1
  Ti  Ti9635  1  0.16666664  0.26190479  0.58518519  1
  Ti  Ti9636  1  0.16666664  0.33333336  0.58518519  1
  Ti  Ti9637  1  0.16666664  0.40476193  0.58518519  1
  Ti  Ti9638  1  0.16666664  0.47619050  0.58518519  1
  Ti  Ti9639  1  0.16666664  0.54761907  0.58518519  1
  Ti  Ti9640  1  0.16666664  0.61904764  0.58518519  1
  Ti  Ti9641  1  0.16666664  0.69047621  0.58518519  1
  Ti  Ti9642  1  0.16666664  0.76190479  0.58518519  1
  Ti  Ti9643  1  0.16666664  0.83333336  0.58518519  1
  Ti  Ti9644  1  0.16666664  0.90476193  0.58518519  1
  Ti  Ti9645  1  0.16666664  0.97619050  0.58518519  1
  Ti  Ti9646  1  0.23809521  0.04761907  0.58518519  1
  Ti  Ti9647  1  0.23809521  0.11904764  0.58518519  1
  Ti  Ti9648  1  0.23809521  0.19047621  0.58518519  1
  Ti  Ti9649  1  0.23809521  0.26190479  0.58518519  1
  Ti  Ti9650  1  0.23809521  0.33333336  0.58518519  1
  Ti  Ti9651  1  0.23809521  0.40476193  0.58518519  1
  Ti  Ti9652  1  0.23809521  0.47619050  0.58518519  1
  Ti  Ti9653  1  0.23809521  0.54761907  0.58518519  1
  Ti  Ti9654  1  0.23809521  0.61904764  0.58518519  1
  Ti  Ti9655  1  0.23809521  0.69047621  0.58518519  1
  Ti  Ti9656  1  0.23809521  0.76190479  0.58518519  1
  Ti  Ti9657  1  0.23809521  0.83333336  0.58518519  1
  Ti  Ti9658  1  0.23809521  0.90476193  0.58518519  1
  Ti  Ti9659  1  0.23809521  0.97619050  0.58518519  1
  Ti  Ti9660  1  0.30952379  0.04761907  0.58518519  1
  Ti  Ti9661  1  0.30952379  0.11904764  0.58518519  1
  Ti  Ti9662  1  0.30952379  0.19047621  0.58518519  1
  Ti  Ti9663  1  0.30952379  0.26190479  0.58518519  1
  Ti  Ti9664  1  0.30952379  0.33333336  0.58518519  1
  Ti  Ti9665  1  0.30952379  0.40476193  0.58518519  1
  Ti  Ti9666  1  0.30952379  0.47619050  0.58518519  1
  Ti  Ti9667  1  0.30952379  0.54761907  0.58518519  1
  Ti  Ti9668  1  0.30952379  0.61904764  0.58518519  1
  Ti  Ti9669  1  0.30952379  0.69047621  0.58518519  1
  Ti  Ti9670  1  0.30952379  0.76190479  0.58518519  1
  Ti  Ti9671  1  0.30952379  0.83333336  0.58518519  1
  Ti  Ti9672  1  0.30952379  0.90476193  0.58518519  1
  Ti  Ti9673  1  0.30952379  0.97619050  0.58518519  1
  Ti  Ti9674  1  0.38095236  0.04761907  0.58518519  1
  Ti  Ti9675  1  0.38095236  0.11904764  0.58518519  1
  Ti  Ti9676  1  0.38095236  0.19047621  0.58518519  1
  Ti  Ti9677  1  0.38095236  0.26190479  0.58518519  1
  Ti  Ti9678  1  0.38095236  0.33333336  0.58518519  1
  Ti  Ti9679  1  0.38095236  0.40476193  0.58518519  1
  Ti  Ti9680  1  0.38095236  0.47619050  0.58518519  1
  Ti  Ti9681  1  0.38095236  0.54761907  0.58518519  1
  Ti  Ti9682  1  0.38095236  0.61904764  0.58518519  1
  Ti  Ti9683  1  0.38095236  0.69047621  0.58518519  1
  Ti  Ti9684  1  0.38095236  0.76190479  0.58518519  1
  Ti  Ti9685  1  0.38095236  0.83333336  0.58518519  1
  Ti  Ti9686  1  0.38095236  0.90476193  0.58518519  1
  Ti  Ti9687  1  0.38095236  0.97619050  0.58518519  1
  Ti  Ti9688  1  0.45238093  0.04761907  0.58518519  1
  Ti  Ti9689  1  0.45238093  0.11904764  0.58518519  1
  Ti  Ti9690  1  0.45238093  0.19047621  0.58518519  1
  Ti  Ti9691  1  0.45238093  0.26190479  0.58518519  1
  Ti  Ti9692  1  0.45238093  0.33333336  0.58518519  1
  Ti  Ti9693  1  0.45238093  0.40476193  0.58518519  1
  Ti  Ti9694  1  0.45238093  0.47619050  0.58518519  1
  Ti  Ti9695  1  0.45238093  0.54761907  0.58518519  1
  Ti  Ti9696  1  0.45238093  0.61904764  0.58518519  1
  Ti  Ti9697  1  0.45238093  0.69047621  0.58518519  1
  Ti  Ti9698  1  0.45238093  0.76190479  0.58518519  1
  Ti  Ti9699  1  0.45238093  0.83333336  0.58518519  1
  Ti  Ti9700  1  0.45238093  0.90476193  0.58518519  1
  Ti  Ti9701  1  0.45238093  0.97619050  0.58518519  1
  Ti  Ti9702  1  0.52380950  0.04761907  0.58518519  1
  Ti  Ti9703  1  0.52380950  0.11904764  0.58518519  1
  Ti  Ti9704  1  0.52380950  0.19047621  0.58518519  1
  Ti  Ti9705  1  0.52380950  0.26190479  0.58518519  1
  Ti  Ti9706  1  0.52380950  0.33333336  0.58518519  1
  Ti  Ti9707  1  0.52380950  0.40476193  0.58518519  1
  Ti  Ti9708  1  0.52380950  0.47619050  0.58518519  1
  Ti  Ti9709  1  0.52380950  0.54761907  0.58518519  1
  Ti  Ti9710  1  0.52380950  0.61904764  0.58518519  1
  Ti  Ti9711  1  0.52380950  0.69047621  0.58518519  1
  Ti  Ti9712  1  0.52380950  0.76190479  0.58518519  1
  Ti  Ti9713  1  0.52380950  0.83333336  0.58518519  1
  Ti  Ti9714  1  0.52380950  0.90476193  0.58518519  1
  Ti  Ti9715  1  0.52380950  0.97619050  0.58518519  1
  Ti  Ti9716  1  0.59523807  0.04761907  0.58518519  1
  Ti  Ti9717  1  0.59523807  0.11904764  0.58518519  1
  Ti  Ti9718  1  0.59523807  0.19047621  0.58518519  1
  Ti  Ti9719  1  0.59523807  0.26190479  0.58518519  1
  Ti  Ti9720  1  0.59523807  0.33333336  0.58518519  1
  Ti  Ti9721  1  0.59523807  0.40476193  0.58518519  1
  Ti  Ti9722  1  0.59523807  0.47619050  0.58518519  1
  Ti  Ti9723  1  0.59523807  0.54761907  0.58518519  1
  Ti  Ti9724  1  0.59523807  0.61904764  0.58518519  1
  Ti  Ti9725  1  0.59523807  0.69047621  0.58518519  1
  Ti  Ti9726  1  0.59523807  0.76190479  0.58518519  1
  Ti  Ti9727  1  0.59523807  0.83333336  0.58518519  1
  Ti  Ti9728  1  0.59523807  0.90476193  0.58518519  1
  Ti  Ti9729  1  0.59523807  0.97619050  0.58518519  1
  Ti  Ti9730  1  0.66666664  0.04761907  0.58518519  1
  Ti  Ti9731  1  0.66666664  0.11904764  0.58518519  1
  Ti  Ti9732  1  0.66666664  0.19047621  0.58518519  1
  Ti  Ti9733  1  0.66666664  0.26190479  0.58518519  1
  Ti  Ti9734  1  0.66666664  0.33333336  0.58518519  1
  Ti  Ti9735  1  0.66666664  0.40476193  0.58518519  1
  Ti  Ti9736  1  0.66666664  0.47619050  0.58518519  1
  Ti  Ti9737  1  0.66666664  0.54761907  0.58518519  1
  Ti  Ti9738  1  0.66666664  0.61904764  0.58518519  1
  Ti  Ti9739  1  0.66666664  0.69047621  0.58518519  1
  Ti  Ti9740  1  0.66666664  0.76190479  0.58518519  1
  Ti  Ti9741  1  0.66666664  0.83333336  0.58518519  1
  Ti  Ti9742  1  0.66666664  0.90476193  0.58518519  1
  Ti  Ti9743  1  0.66666664  0.97619050  0.58518519  1
  Ti  Ti9744  1  0.73809521  0.04761907  0.58518519  1
  Ti  Ti9745  1  0.73809521  0.11904764  0.58518519  1
  Ti  Ti9746  1  0.73809521  0.19047621  0.58518519  1
  Ti  Ti9747  1  0.73809521  0.26190479  0.58518519  1
  Ti  Ti9748  1  0.73809521  0.33333336  0.58518519  1
  Ti  Ti9749  1  0.73809521  0.40476193  0.58518519  1
  Ti  Ti9750  1  0.73809521  0.47619050  0.58518519  1
  Ti  Ti9751  1  0.73809521  0.54761907  0.58518519  1
  Ti  Ti9752  1  0.73809521  0.61904764  0.58518519  1
  Ti  Ti9753  1  0.73809521  0.69047621  0.58518519  1
  Ti  Ti9754  1  0.73809521  0.76190479  0.58518519  1
  Ti  Ti9755  1  0.73809521  0.83333336  0.58518519  1
  Ti  Ti9756  1  0.73809521  0.90476193  0.58518519  1
  Ti  Ti9757  1  0.73809521  0.97619050  0.58518519  1
  Ti  Ti9758  1  0.80952379  0.04761907  0.58518519  1
  Ti  Ti9759  1  0.80952379  0.11904764  0.58518519  1
  Ti  Ti9760  1  0.80952379  0.19047621  0.58518519  1
  Ti  Ti9761  1  0.80952379  0.26190479  0.58518519  1
  Ti  Ti9762  1  0.80952379  0.33333336  0.58518519  1
  Ti  Ti9763  1  0.80952379  0.40476193  0.58518519  1
  Ti  Ti9764  1  0.80952379  0.47619050  0.58518519  1
  Ti  Ti9765  1  0.80952379  0.54761907  0.58518519  1
  Ti  Ti9766  1  0.80952379  0.61904764  0.58518519  1
  Ti  Ti9767  1  0.80952379  0.69047621  0.58518519  1
  Ti  Ti9768  1  0.80952379  0.76190479  0.58518519  1
  Ti  Ti9769  1  0.80952379  0.83333336  0.58518519  1
  Ti  Ti9770  1  0.80952379  0.90476193  0.58518519  1
  Ti  Ti9771  1  0.80952379  0.97619050  0.58518519  1
  Ti  Ti9772  1  0.88095236  0.04761907  0.58518519  1
  Ti  Ti9773  1  0.88095236  0.11904764  0.58518519  1
  Ti  Ti9774  1  0.88095236  0.19047621  0.58518519  1
  Ti  Ti9775  1  0.88095236  0.26190479  0.58518519  1
  Ti  Ti9776  1  0.88095236  0.33333336  0.58518519  1
  Ti  Ti9777  1  0.88095236  0.40476193  0.58518519  1
  Ti  Ti9778  1  0.88095236  0.47619050  0.58518519  1
  Ti  Ti9779  1  0.88095236  0.54761907  0.58518519  1
  Ti  Ti9780  1  0.88095236  0.61904764  0.58518519  1
  Ti  Ti9781  1  0.88095236  0.69047621  0.58518519  1
  Ti  Ti9782  1  0.88095236  0.76190479  0.58518519  1
  Ti  Ti9783  1  0.88095236  0.83333336  0.58518519  1
  Ti  Ti9784  1  0.88095236  0.90476193  0.58518519  1
  Ti  Ti9785  1  0.88095236  0.97619050  0.58518519  1
  Ti  Ti9786  1  0.95238093  0.04761907  0.58518519  1
  Ti  Ti9787  1  0.95238093  0.11904764  0.58518519  1
  Ti  Ti9788  1  0.95238093  0.19047621  0.58518519  1
  Ti  Ti9789  1  0.95238093  0.26190479  0.58518519  1
  Ti  Ti9790  1  0.95238093  0.33333336  0.58518519  1
  Ti  Ti9791  1  0.95238093  0.40476193  0.58518519  1
  Ti  Ti9792  1  0.95238093  0.47619050  0.58518519  1
  Ti  Ti9793  1  0.95238093  0.54761907  0.58518519  1
  Ti  Ti9794  1  0.95238093  0.61904764  0.58518519  1
  Ti  Ti9795  1  0.95238093  0.69047621  0.58518519  1
  Ti  Ti9796  1  0.95238093  0.76190479  0.58518519  1
  Ti  Ti9797  1  0.95238093  0.83333336  0.58518519  1
  Ti  Ti9798  1  0.95238093  0.90476193  0.58518519  1
  Ti  Ti9799  1  0.95238093  0.97619050  0.58518519  1
  Ti  Ti9800  1  0.04761907  0.02380950  0.58518519  1
  Ti  Ti9801  1  0.04761907  0.09523807  0.58518519  1
  Ti  Ti9802  1  0.04761907  0.16666664  0.58518519  1
  Ti  Ti9803  1  0.04761907  0.23809521  0.58518519  1
  Ti  Ti9804  1  0.04761907  0.30952379  0.58518519  1
  Ti  Ti9805  1  0.04761907  0.38095236  0.58518519  1
  Ti  Ti9806  1  0.04761907  0.45238093  0.58518519  1
  Ti  Ti9807  1  0.04761907  0.52380950  0.58518519  1
  Ti  Ti9808  1  0.04761907  0.59523807  0.58518519  1
  Ti  Ti9809  1  0.04761907  0.66666664  0.58518519  1
  Ti  Ti9810  1  0.04761907  0.73809521  0.58518519  1
  Ti  Ti9811  1  0.04761907  0.80952379  0.58518519  1
  Ti  Ti9812  1  0.04761907  0.88095236  0.58518519  1
  Ti  Ti9813  1  0.04761907  0.95238093  0.58518519  1
  Ti  Ti9814  1  0.11904764  0.02380950  0.58518519  1
  Ti  Ti9815  1  0.11904764  0.09523807  0.58518519  1
  Ti  Ti9816  1  0.11904764  0.16666664  0.58518519  1
  Ti  Ti9817  1  0.11904764  0.23809521  0.58518519  1
  Ti  Ti9818  1  0.11904764  0.30952379  0.58518519  1
  Ti  Ti9819  1  0.11904764  0.38095236  0.58518519  1
  Ti  Ti9820  1  0.11904764  0.45238093  0.58518519  1
  Ti  Ti9821  1  0.11904764  0.52380950  0.58518519  1
  Ti  Ti9822  1  0.11904764  0.59523807  0.58518519  1
  Ti  Ti9823  1  0.11904764  0.66666664  0.58518519  1
  Ti  Ti9824  1  0.11904764  0.73809521  0.58518519  1
  Ti  Ti9825  1  0.11904764  0.80952379  0.58518519  1
  Ti  Ti9826  1  0.11904764  0.88095236  0.58518519  1
  Ti  Ti9827  1  0.11904764  0.95238093  0.58518519  1
  Ti  Ti9828  1  0.19047621  0.02380950  0.58518519  1
  Ti  Ti9829  1  0.19047621  0.09523807  0.58518519  1
  Ti  Ti9830  1  0.19047621  0.16666664  0.58518519  1
  Ti  Ti9831  1  0.19047621  0.23809521  0.58518519  1
  Ti  Ti9832  1  0.19047621  0.30952379  0.58518519  1
  Ti  Ti9833  1  0.19047621  0.38095236  0.58518519  1
  Ti  Ti9834  1  0.19047621  0.45238093  0.58518519  1
  Ti  Ti9835  1  0.19047621  0.52380950  0.58518519  1
  Ti  Ti9836  1  0.19047621  0.59523807  0.58518519  1
  Ti  Ti9837  1  0.19047621  0.66666664  0.58518519  1
  Ti  Ti9838  1  0.19047621  0.73809521  0.58518519  1
  Ti  Ti9839  1  0.19047621  0.80952379  0.58518519  1
  Ti  Ti9840  1  0.19047621  0.88095236  0.58518519  1
  Ti  Ti9841  1  0.19047621  0.95238093  0.58518519  1
  Ti  Ti9842  1  0.26190479  0.02380950  0.58518519  1
  Ti  Ti9843  1  0.26190479  0.09523807  0.58518519  1
  Ti  Ti9844  1  0.26190479  0.16666664  0.58518519  1
  Ti  Ti9845  1  0.26190479  0.23809521  0.58518519  1
  Ti  Ti9846  1  0.26190479  0.30952379  0.58518519  1
  Ti  Ti9847  1  0.26190479  0.38095236  0.58518519  1
  Ti  Ti9848  1  0.26190479  0.45238093  0.58518519  1
  Ti  Ti9849  1  0.26190479  0.52380950  0.58518519  1
  Ti  Ti9850  1  0.26190479  0.59523807  0.58518519  1
  Ti  Ti9851  1  0.26190479  0.66666664  0.58518519  1
  Ti  Ti9852  1  0.26190479  0.73809521  0.58518519  1
  Ti  Ti9853  1  0.26190479  0.80952379  0.58518519  1
  Ti  Ti9854  1  0.26190479  0.88095236  0.58518519  1
  Ti  Ti9855  1  0.26190479  0.95238093  0.58518519  1
  Ti  Ti9856  1  0.33333336  0.02380950  0.58518519  1
  Ti  Ti9857  1  0.33333336  0.09523807  0.58518519  1
  Ti  Ti9858  1  0.33333336  0.16666664  0.58518519  1
  Ti  Ti9859  1  0.33333336  0.23809521  0.58518519  1
  Ti  Ti9860  1  0.33333336  0.30952379  0.58518519  1
  Ti  Ti9861  1  0.33333336  0.38095236  0.58518519  1
  Ti  Ti9862  1  0.33333336  0.45238093  0.58518519  1
  Ti  Ti9863  1  0.33333336  0.52380950  0.58518519  1
  Ti  Ti9864  1  0.33333336  0.59523807  0.58518519  1
  Ti  Ti9865  1  0.33333336  0.66666664  0.58518519  1
  Ti  Ti9866  1  0.33333336  0.73809521  0.58518519  1
  Ti  Ti9867  1  0.33333336  0.80952379  0.58518519  1
  Ti  Ti9868  1  0.33333336  0.88095236  0.58518519  1
  Ti  Ti9869  1  0.33333336  0.95238093  0.58518519  1
  Ti  Ti9870  1  0.40476193  0.02380950  0.58518519  1
  Ti  Ti9871  1  0.40476193  0.09523807  0.58518519  1
  Ti  Ti9872  1  0.40476193  0.16666664  0.58518519  1
  Ti  Ti9873  1  0.40476193  0.23809521  0.58518519  1
  Ti  Ti9874  1  0.40476193  0.30952379  0.58518519  1
  Ti  Ti9875  1  0.40476193  0.38095236  0.58518519  1
  Ti  Ti9876  1  0.40476193  0.45238093  0.58518519  1
  Ti  Ti9877  1  0.40476193  0.52380950  0.58518519  1
  Ti  Ti9878  1  0.40476193  0.59523807  0.58518519  1
  Ti  Ti9879  1  0.40476193  0.66666664  0.58518519  1
  Ti  Ti9880  1  0.40476193  0.73809521  0.58518519  1
  Ti  Ti9881  1  0.40476193  0.80952379  0.58518519  1
  Ti  Ti9882  1  0.40476193  0.88095236  0.58518519  1
  Ti  Ti9883  1  0.40476193  0.95238093  0.58518519  1
  Ti  Ti9884  1  0.47619050  0.02380950  0.58518519  1
  Ti  Ti9885  1  0.47619050  0.09523807  0.58518519  1
  Ti  Ti9886  1  0.47619050  0.16666664  0.58518519  1
  Ti  Ti9887  1  0.47619050  0.23809521  0.58518519  1
  Ti  Ti9888  1  0.47619050  0.30952379  0.58518519  1
  Ti  Ti9889  1  0.47619050  0.38095236  0.58518519  1
  Ti  Ti9890  1  0.47619050  0.45238093  0.58518519  1
  Ti  Ti9891  1  0.47619050  0.52380950  0.58518519  1
  Ti  Ti9892  1  0.47619050  0.59523807  0.58518519  1
  Ti  Ti9893  1  0.47619050  0.66666664  0.58518519  1
  Ti  Ti9894  1  0.47619050  0.73809521  0.58518519  1
  Ti  Ti9895  1  0.47619050  0.80952379  0.58518519  1
  Ti  Ti9896  1  0.47619050  0.88095236  0.58518519  1
  Ti  Ti9897  1  0.47619050  0.95238093  0.58518519  1
  Ti  Ti9898  1  0.54761907  0.02380950  0.58518519  1
  Ti  Ti9899  1  0.54761907  0.09523807  0.58518519  1
  Ti  Ti9900  1  0.54761907  0.16666664  0.58518519  1
  Ti  Ti9901  1  0.54761907  0.23809521  0.58518519  1
  Ti  Ti9902  1  0.54761907  0.30952379  0.58518519  1
  Ti  Ti9903  1  0.54761907  0.38095236  0.58518519  1
  Ti  Ti9904  1  0.54761907  0.45238093  0.58518519  1
  Ti  Ti9905  1  0.54761907  0.52380950  0.58518519  1
  Ti  Ti9906  1  0.54761907  0.59523807  0.58518519  1
  Ti  Ti9907  1  0.54761907  0.66666664  0.58518519  1
  Ti  Ti9908  1  0.54761907  0.73809521  0.58518519  1
  Ti  Ti9909  1  0.54761907  0.80952379  0.58518519  1
  Ti  Ti9910  1  0.54761907  0.88095236  0.58518519  1
  Ti  Ti9911  1  0.54761907  0.95238093  0.58518519  1
  Ti  Ti9912  1  0.61904764  0.02380950  0.58518519  1
  Ti  Ti9913  1  0.61904764  0.09523807  0.58518519  1
  Ti  Ti9914  1  0.61904764  0.16666664  0.58518519  1
  Ti  Ti9915  1  0.61904764  0.23809521  0.58518519  1
  Ti  Ti9916  1  0.61904764  0.30952379  0.58518519  1
  Ti  Ti9917  1  0.61904764  0.38095236  0.58518519  1
  Ti  Ti9918  1  0.61904764  0.45238093  0.58518519  1
  Ti  Ti9919  1  0.61904764  0.52380950  0.58518519  1
  Ti  Ti9920  1  0.61904764  0.59523807  0.58518519  1
  Ti  Ti9921  1  0.61904764  0.66666664  0.58518519  1
  Ti  Ti9922  1  0.61904764  0.73809521  0.58518519  1
  Ti  Ti9923  1  0.61904764  0.80952379  0.58518519  1
  Ti  Ti9924  1  0.61904764  0.88095236  0.58518519  1
  Ti  Ti9925  1  0.61904764  0.95238093  0.58518519  1
  Ti  Ti9926  1  0.69047621  0.02380950  0.58518519  1
  Ti  Ti9927  1  0.69047621  0.09523807  0.58518519  1
  Ti  Ti9928  1  0.69047621  0.16666664  0.58518519  1
  Ti  Ti9929  1  0.69047621  0.23809521  0.58518519  1
  Ti  Ti9930  1  0.69047621  0.30952379  0.58518519  1
  Ti  Ti9931  1  0.69047621  0.38095236  0.58518519  1
  Ti  Ti9932  1  0.69047621  0.45238093  0.58518519  1
  Ti  Ti9933  1  0.69047621  0.52380950  0.58518519  1
  Ti  Ti9934  1  0.69047621  0.59523807  0.58518519  1
  Ti  Ti9935  1  0.69047621  0.66666664  0.58518519  1
  Ti  Ti9936  1  0.69047621  0.73809521  0.58518519  1
  Ti  Ti9937  1  0.69047621  0.80952379  0.58518519  1
  Ti  Ti9938  1  0.69047621  0.88095236  0.58518519  1
  Ti  Ti9939  1  0.69047621  0.95238093  0.58518519  1
  Ti  Ti9940  1  0.76190479  0.02380950  0.58518519  1
  Ti  Ti9941  1  0.76190479  0.09523807  0.58518519  1
  Ti  Ti9942  1  0.76190479  0.16666664  0.58518519  1
  Ti  Ti9943  1  0.76190479  0.23809521  0.58518519  1
  Ti  Ti9944  1  0.76190479  0.30952379  0.58518519  1
  Ti  Ti9945  1  0.76190479  0.38095236  0.58518519  1
  Ti  Ti9946  1  0.76190479  0.45238093  0.58518519  1
  Ti  Ti9947  1  0.76190479  0.52380950  0.58518519  1
  Ti  Ti9948  1  0.76190479  0.59523807  0.58518519  1
  Ti  Ti9949  1  0.76190479  0.66666664  0.58518519  1
  Ti  Ti9950  1  0.76190479  0.73809521  0.58518519  1
  Ti  Ti9951  1  0.76190479  0.80952379  0.58518519  1
  Ti  Ti9952  1  0.76190479  0.88095236  0.58518519  1
  Ti  Ti9953  1  0.76190479  0.95238093  0.58518519  1
  Ti  Ti9954  1  0.83333336  0.02380950  0.58518519  1
  Ti  Ti9955  1  0.83333336  0.09523807  0.58518519  1
  Ti  Ti9956  1  0.83333336  0.16666664  0.58518519  1
  Ti  Ti9957  1  0.83333336  0.23809521  0.58518519  1
  Ti  Ti9958  1  0.83333336  0.30952379  0.58518519  1
  Ti  Ti9959  1  0.83333336  0.38095236  0.58518519  1
  Ti  Ti9960  1  0.83333336  0.45238093  0.58518519  1
  Ti  Ti9961  1  0.83333336  0.52380950  0.58518519  1
  Ti  Ti9962  1  0.83333336  0.59523807  0.58518519  1
  Ti  Ti9963  1  0.83333336  0.66666664  0.58518519  1
  Ti  Ti9964  1  0.83333336  0.73809521  0.58518519  1
  Ti  Ti9965  1  0.83333336  0.80952379  0.58518519  1
  Ti  Ti9966  1  0.83333336  0.88095236  0.58518519  1
  Ti  Ti9967  1  0.83333336  0.95238093  0.58518519  1
  Ti  Ti9968  1  0.90476193  0.02380950  0.58518519  1
  Ti  Ti9969  1  0.90476193  0.09523807  0.58518519  1
  Ti  Ti9970  1  0.90476193  0.16666664  0.58518519  1
  Ti  Ti9971  1  0.90476193  0.23809521  0.58518519  1
  Ti  Ti9972  1  0.90476193  0.30952379  0.58518519  1
  Ti  Ti9973  1  0.90476193  0.38095236  0.58518519  1
  Ti  Ti9974  1  0.90476193  0.45238093  0.58518519  1
  Ti  Ti9975  1  0.90476193  0.52380950  0.58518519  1
  Ti  Ti9976  1  0.90476193  0.59523807  0.58518519  1
  Ti  Ti9977  1  0.90476193  0.66666664  0.58518519  1
  Ti  Ti9978  1  0.90476193  0.73809521  0.58518519  1
  Ti  Ti9979  1  0.90476193  0.80952379  0.58518519  1
  Ti  Ti9980  1  0.90476193  0.88095236  0.58518519  1
  Ti  Ti9981  1  0.90476193  0.95238093  0.58518519  1
  Ti  Ti9982  1  0.97619050  0.02380950  0.58518519  1
  Ti  Ti9983  1  0.97619050  0.09523807  0.58518519  1
  Ti  Ti9984  1  0.97619050  0.16666664  0.58518519  1
  Ti  Ti9985  1  0.97619050  0.23809521  0.58518519  1
  Ti  Ti9986  1  0.97619050  0.30952379  0.58518519  1
  Ti  Ti9987  1  0.97619050  0.38095236  0.58518519  1
  Ti  Ti9988  1  0.97619050  0.45238093  0.58518519  1
  Ti  Ti9989  1  0.97619050  0.52380950  0.58518519  1
  Ti  Ti9990  1  0.97619050  0.59523807  0.58518519  1
  Ti  Ti9991  1  0.97619050  0.66666664  0.58518519  1
  Ti  Ti9992  1  0.97619050  0.73809521  0.58518519  1
  Ti  Ti9993  1  0.97619050  0.80952379  0.58518519  1
  Ti  Ti9994  1  0.97619050  0.88095236  0.58518519  1
  Ti  Ti9995  1  0.97619050  0.95238093  0.58518519  1
  Ti  Ti9996  1  0.00000000  0.00000000  0.61851852  1
  Ti  Ti9997  1  0.00000000  0.07142857  0.61851852  1
  Ti  Ti9998  1  0.00000000  0.14285714  0.61851852  1
  Ti  Ti9999  1  0.00000000  0.21428571  0.61851852  1
  Ti  Ti10000  1  0.00000000  0.28571429  0.61851852  1
  Ti  Ti10001  1  0.00000000  0.35714286  0.61851852  1
  Ti  Ti10002  1  0.00000000  0.42857143  0.61851852  1
  Ti  Ti10003  1  0.00000000  0.50000000  0.61851852  1
  Ti  Ti10004  1  0.00000000  0.57142857  0.61851852  1
  Ti  Ti10005  1  0.00000000  0.64285714  0.61851852  1
  Ti  Ti10006  1  0.00000000  0.71428571  0.61851852  1
  Ti  Ti10007  1  1.00000000  0.78571429  0.61851852  1
  Ti  Ti10008  1  0.00000000  0.85714286  0.61851852  1
  Ti  Ti10009  1  0.00000000  0.92857143  0.61851852  1
  Ti  Ti10010  1  0.07142857  0.00000000  0.61851852  1
  Ti  Ti10011  1  0.07142857  0.07142857  0.61851852  1
  Ti  Ti10012  1  0.07142857  0.14285714  0.61851852  1
  Ti  Ti10013  1  0.07142857  0.21428571  0.61851852  1
  Ti  Ti10014  1  0.07142857  0.28571429  0.61851852  1
  Ti  Ti10015  1  0.07142857  0.35714286  0.61851852  1
  Ti  Ti10016  1  0.07142857  0.42857143  0.61851852  1
  Ti  Ti10017  1  0.07142857  0.50000000  0.61851852  1
  Ti  Ti10018  1  0.07142857  0.57142857  0.61851852  1
  Ti  Ti10019  1  0.07142857  0.64285714  0.61851852  1
  Ti  Ti10020  1  0.07142857  0.71428571  0.61851852  1
  Ti  Ti10021  1  0.07142857  0.78571429  0.61851852  1
  Ti  Ti10022  1  0.07142857  0.85714286  0.61851852  1
  Ti  Ti10023  1  0.07142857  0.92857143  0.61851852  1
  Ti  Ti10024  1  0.14285714  0.00000000  0.61851852  1
  Ti  Ti10025  1  0.14285714  0.07142857  0.61851852  1
  Ti  Ti10026  1  0.14285714  0.14285714  0.61851852  1
  Ti  Ti10027  1  0.14285714  0.21428571  0.61851852  1
  Ti  Ti10028  1  0.14285714  0.28571429  0.61851852  1
  Ti  Ti10029  1  0.14285714  0.35714286  0.61851852  1
  Ti  Ti10030  1  0.14285714  0.42857143  0.61851852  1
  Ti  Ti10031  1  0.14285714  0.50000000  0.61851852  1
  Ti  Ti10032  1  0.14285714  0.57142857  0.61851852  1
  Ti  Ti10033  1  0.14285714  0.64285714  0.61851852  1
  Ti  Ti10034  1  0.14285714  0.71428571  0.61851852  1
  Ti  Ti10035  1  0.14285714  0.78571429  0.61851852  1
  Ti  Ti10036  1  0.14285714  0.85714286  0.61851852  1
  Ti  Ti10037  1  0.14285714  0.92857143  0.61851852  1
  Ti  Ti10038  1  0.21428571  0.00000000  0.61851852  1
  Ti  Ti10039  1  0.21428571  0.07142857  0.61851852  1
  Ti  Ti10040  1  0.21428571  0.14285714  0.61851852  1
  Ti  Ti10041  1  0.21428571  0.21428571  0.61851852  1
  Ti  Ti10042  1  0.21428571  0.28571429  0.61851852  1
  Ti  Ti10043  1  0.21428571  0.35714286  0.61851852  1
  Ti  Ti10044  1  0.21428571  0.42857143  0.61851852  1
  Ti  Ti10045  1  0.21428571  0.50000000  0.61851852  1
  Ti  Ti10046  1  0.21428571  0.57142857  0.61851852  1
  Ti  Ti10047  1  0.21428571  0.64285714  0.61851852  1
  Ti  Ti10048  1  0.21428571  0.71428571  0.61851852  1
  Ti  Ti10049  1  0.21428571  0.78571429  0.61851852  1
  Ti  Ti10050  1  0.21428571  0.85714286  0.61851852  1
  Ti  Ti10051  1  0.21428571  0.92857143  0.61851852  1
  Ti  Ti10052  1  0.28571429  0.00000000  0.61851852  1
  Ti  Ti10053  1  0.28571429  0.07142857  0.61851852  1
  Ti  Ti10054  1  0.28571429  0.14285714  0.61851852  1
  Ti  Ti10055  1  0.28571429  0.21428571  0.61851852  1
  Ti  Ti10056  1  0.28571429  0.28571429  0.61851852  1
  Ti  Ti10057  1  0.28571429  0.35714286  0.61851852  1
  Ti  Ti10058  1  0.28571429  0.42857143  0.61851852  1
  Ti  Ti10059  1  0.28571429  0.50000000  0.61851852  1
  Ti  Ti10060  1  0.28571429  0.57142857  0.61851852  1
  Ti  Ti10061  1  0.28571429  0.64285714  0.61851852  1
  Ti  Ti10062  1  0.28571429  0.71428571  0.61851852  1
  Ti  Ti10063  1  0.28571429  0.78571429  0.61851852  1
  Ti  Ti10064  1  0.28571429  0.85714286  0.61851852  1
  Ti  Ti10065  1  0.28571429  0.92857143  0.61851852  1
  Ti  Ti10066  1  0.35714286  0.00000000  0.61851852  1
  Ti  Ti10067  1  0.35714286  0.07142857  0.61851852  1
  Ti  Ti10068  1  0.35714286  0.14285714  0.61851852  1
  Ti  Ti10069  1  0.35714286  0.21428571  0.61851852  1
  Ti  Ti10070  1  0.35714286  0.28571429  0.61851852  1
  Ti  Ti10071  1  0.35714286  0.35714286  0.61851852  1
  Ti  Ti10072  1  0.35714286  0.42857143  0.61851852  1
  Ti  Ti10073  1  0.35714286  0.50000000  0.61851852  1
  Ti  Ti10074  1  0.35714286  0.57142857  0.61851852  1
  Ti  Ti10075  1  0.35714286  0.64285714  0.61851852  1
  Ti  Ti10076  1  0.35714286  0.71428571  0.61851852  1
  Ti  Ti10077  1  0.35714286  0.78571429  0.61851852  1
  Ti  Ti10078  1  0.35714286  0.85714286  0.61851852  1
  Ti  Ti10079  1  0.35714286  0.92857143  0.61851852  1
  Ti  Ti10080  1  0.42857143  0.00000000  0.61851852  1
  Ti  Ti10081  1  0.42857143  0.07142857  0.61851852  1
  Ti  Ti10082  1  0.42857143  0.14285714  0.61851852  1
  Ti  Ti10083  1  0.42857143  0.21428571  0.61851852  1
  Ti  Ti10084  1  0.42857143  0.28571429  0.61851852  1
  Ti  Ti10085  1  0.42857143  0.35714286  0.61851852  1
  Ti  Ti10086  1  0.42857143  0.42857143  0.61851852  1
  Ti  Ti10087  1  0.42857143  0.50000000  0.61851852  1
  Ti  Ti10088  1  0.42857143  0.57142857  0.61851852  1
  Ti  Ti10089  1  0.42857143  0.64285714  0.61851852  1
  Ti  Ti10090  1  0.42857143  0.71428571  0.61851852  1
  Ti  Ti10091  1  0.42857143  0.78571429  0.61851852  1
  Ti  Ti10092  1  0.42857143  0.85714286  0.61851852  1
  Ti  Ti10093  1  0.42857143  0.92857143  0.61851852  1
  Ti  Ti10094  1  0.50000000  0.00000000  0.61851852  1
  Ti  Ti10095  1  0.50000000  0.07142857  0.61851852  1
  Ti  Ti10096  1  0.50000000  0.14285714  0.61851852  1
  Ti  Ti10097  1  0.50000000  0.21428571  0.61851852  1
  Ti  Ti10098  1  0.50000000  0.28571429  0.61851852  1
  Ti  Ti10099  1  0.50000000  0.35714286  0.61851852  1
  Ti  Ti10100  1  0.50000000  0.42857143  0.61851852  1
  Ti  Ti10101  1  0.50000000  0.50000000  0.61851852  1
  Ti  Ti10102  1  0.50000000  0.57142857  0.61851852  1
  Ti  Ti10103  1  0.50000000  0.64285714  0.61851852  1
  Ti  Ti10104  1  0.50000000  0.71428571  0.61851852  1
  Ti  Ti10105  1  0.50000000  0.78571429  0.61851852  1
  Ti  Ti10106  1  0.50000000  0.85714286  0.61851852  1
  Ti  Ti10107  1  0.50000000  0.92857143  0.61851852  1
  Ti  Ti10108  1  0.57142857  0.00000000  0.61851852  1
  Ti  Ti10109  1  0.57142857  0.07142857  0.61851852  1
  Ti  Ti10110  1  0.57142857  0.14285714  0.61851852  1
  Ti  Ti10111  1  0.57142857  0.21428571  0.61851852  1
  Ti  Ti10112  1  0.57142857  0.28571429  0.61851852  1
  Ti  Ti10113  1  0.57142857  0.35714286  0.61851852  1
  Ti  Ti10114  1  0.57142857  0.42857143  0.61851852  1
  Ti  Ti10115  1  0.57142857  0.50000000  0.61851852  1
  Ti  Ti10116  1  0.57142857  0.57142857  0.61851852  1
  Ti  Ti10117  1  0.57142857  0.64285714  0.61851852  1
  Ti  Ti10118  1  0.57142857  0.71428571  0.61851852  1
  Ti  Ti10119  1  0.57142857  0.78571429  0.61851852  1
  Ti  Ti10120  1  0.57142857  0.85714286  0.61851852  1
  Ti  Ti10121  1  0.57142857  0.92857143  0.61851852  1
  Ti  Ti10122  1  0.64285714  0.00000000  0.61851852  1
  Ti  Ti10123  1  0.64285714  0.07142857  0.61851852  1
  Ti  Ti10124  1  0.64285714  0.14285714  0.61851852  1
  Ti  Ti10125  1  0.64285714  0.21428571  0.61851852  1
  Ti  Ti10126  1  0.64285714  0.28571429  0.61851852  1
  Ti  Ti10127  1  0.64285714  0.35714286  0.61851852  1
  Ti  Ti10128  1  0.64285714  0.42857143  0.61851852  1
  Ti  Ti10129  1  0.64285714  0.50000000  0.61851852  1
  Ti  Ti10130  1  0.64285714  0.57142857  0.61851852  1
  Ti  Ti10131  1  0.64285714  0.64285714  0.61851852  1
  Ti  Ti10132  1  0.64285714  0.71428571  0.61851852  1
  Ti  Ti10133  1  0.64285714  0.78571429  0.61851852  1
  Ti  Ti10134  1  0.64285714  0.85714286  0.61851852  1
  Ti  Ti10135  1  0.64285714  0.92857143  0.61851852  1
  Ti  Ti10136  1  0.71428571  0.00000000  0.61851852  1
  Ti  Ti10137  1  0.71428571  0.07142857  0.61851852  1
  Ti  Ti10138  1  0.71428571  0.14285714  0.61851852  1
  Ti  Ti10139  1  0.71428571  0.21428571  0.61851852  1
  Ti  Ti10140  1  0.71428571  0.28571429  0.61851852  1
  Ti  Ti10141  1  0.71428571  0.35714286  0.61851852  1
  Ti  Ti10142  1  0.71428571  0.42857143  0.61851852  1
  Ti  Ti10143  1  0.71428571  0.50000000  0.61851852  1
  Ti  Ti10144  1  0.71428571  0.57142857  0.61851852  1
  Ti  Ti10145  1  0.71428571  0.64285714  0.61851852  1
  Ti  Ti10146  1  0.71428571  0.71428571  0.61851852  1
  Ti  Ti10147  1  0.71428571  0.78571429  0.61851852  1
  Ti  Ti10148  1  0.71428571  0.85714286  0.61851852  1
  Ti  Ti10149  1  0.71428571  0.92857143  0.61851852  1
  Ti  Ti10150  1  0.78571429  0.00000000  0.61851852  1
  Ti  Ti10151  1  0.78571429  0.07142857  0.61851852  1
  Ti  Ti10152  1  0.78571429  0.14285714  0.61851852  1
  Ti  Ti10153  1  0.78571429  0.21428571  0.61851852  1
  Ti  Ti10154  1  0.78571429  0.28571429  0.61851852  1
  Ti  Ti10155  1  0.78571429  0.35714286  0.61851852  1
  Ti  Ti10156  1  0.78571429  0.42857143  0.61851852  1
  Ti  Ti10157  1  0.78571429  0.50000000  0.61851852  1
  Ti  Ti10158  1  0.78571429  0.57142857  0.61851852  1
  Ti  Ti10159  1  0.78571429  0.64285714  0.61851852  1
  Ti  Ti10160  1  0.78571429  0.71428571  0.61851852  1
  Ti  Ti10161  1  0.78571429  0.78571429  0.61851852  1
  Ti  Ti10162  1  0.78571429  0.85714286  0.61851852  1
  Ti  Ti10163  1  0.78571429  0.92857143  0.61851852  1
  Ti  Ti10164  1  0.85714286  0.00000000  0.61851852  1
  Ti  Ti10165  1  0.85714286  0.07142857  0.61851852  1
  Ti  Ti10166  1  0.85714286  0.14285714  0.61851852  1
  Ti  Ti10167  1  0.85714286  0.21428571  0.61851852  1
  Ti  Ti10168  1  0.85714286  0.28571429  0.61851852  1
  Ti  Ti10169  1  0.85714286  0.35714286  0.61851852  1
  Ti  Ti10170  1  0.85714286  0.42857143  0.61851852  1
  Ti  Ti10171  1  0.85714286  0.50000000  0.61851852  1
  Ti  Ti10172  1  0.85714286  0.57142857  0.61851852  1
  Ti  Ti10173  1  0.85714286  0.64285714  0.61851852  1
  Ti  Ti10174  1  0.85714286  0.71428571  0.61851852  1
  Ti  Ti10175  1  0.85714286  0.78571429  0.61851852  1
  Ti  Ti10176  1  0.85714286  0.85714286  0.61851852  1
  Ti  Ti10177  1  0.85714286  0.92857143  0.61851852  1
  Ti  Ti10178  1  0.92857143  0.00000000  0.61851852  1
  Ti  Ti10179  1  0.92857143  0.07142857  0.61851852  1
  Ti  Ti10180  1  0.92857143  0.14285714  0.61851852  1
  Ti  Ti10181  1  0.92857143  0.21428571  0.61851852  1
  Ti  Ti10182  1  0.92857143  0.28571429  0.61851852  1
  Ti  Ti10183  1  0.92857143  0.35714286  0.61851852  1
  Ti  Ti10184  1  0.92857143  0.42857143  0.61851852  1
  Ti  Ti10185  1  0.92857143  0.50000000  0.61851852  1
  Ti  Ti10186  1  0.92857143  0.57142857  0.61851852  1
  Ti  Ti10187  1  0.92857143  0.64285714  0.61851852  1
  Ti  Ti10188  1  0.92857143  0.71428571  0.61851852  1
  Ti  Ti10189  1  0.92857143  0.78571429  0.61851852  1
  Ti  Ti10190  1  0.92857143  0.85714286  0.61851852  1
  Ti  Ti10191  1  0.92857143  0.92857143  0.61851852  1
  Ti  Ti10192  1  0.02380950  0.04761907  0.60740741  1
  Ti  Ti10193  1  0.02380950  0.11904764  0.60740741  1
  Ti  Ti10194  1  0.02380950  0.19047621  0.60740741  1
  Ti  Ti10195  1  0.02380950  0.26190479  0.60740741  1
  Ti  Ti10196  1  0.02380950  0.33333336  0.60740741  1
  Ti  Ti10197  1  0.02380950  0.40476193  0.60740741  1
  Ti  Ti10198  1  0.02380950  0.47619050  0.60740741  1
  Ti  Ti10199  1  0.02380950  0.54761907  0.60740741  1
  Ti  Ti10200  1  0.02380950  0.61904764  0.60740741  1
  Ti  Ti10201  1  0.02380950  0.69047621  0.60740741  1
  Ti  Ti10202  1  0.02380950  0.76190479  0.60740741  1
  Ti  Ti10203  1  0.02380950  0.83333336  0.60740741  1
  Ti  Ti10204  1  0.02380950  0.90476193  0.60740741  1
  Ti  Ti10205  1  0.02380950  0.97619050  0.60740741  1
  Ti  Ti10206  1  0.09523807  0.04761907  0.60740741  1
  Ti  Ti10207  1  0.09523807  0.11904764  0.60740741  1
  Ti  Ti10208  1  0.09523807  0.19047621  0.60740741  1
  Ti  Ti10209  1  0.09523807  0.26190479  0.60740741  1
  Ti  Ti10210  1  0.09523807  0.33333336  0.60740741  1
  Ti  Ti10211  1  0.09523807  0.40476193  0.60740741  1
  Ti  Ti10212  1  0.09523807  0.47619050  0.60740741  1
  Ti  Ti10213  1  0.09523807  0.54761907  0.60740741  1
  Ti  Ti10214  1  0.09523807  0.61904764  0.60740741  1
  Ti  Ti10215  1  0.09523807  0.69047621  0.60740741  1
  Ti  Ti10216  1  0.09523807  0.76190479  0.60740741  1
  Ti  Ti10217  1  0.09523807  0.83333336  0.60740741  1
  Ti  Ti10218  1  0.09523807  0.90476193  0.60740741  1
  Ti  Ti10219  1  0.09523807  0.97619050  0.60740741  1
  Ti  Ti10220  1  0.16666664  0.04761907  0.60740741  1
  Ti  Ti10221  1  0.16666664  0.11904764  0.60740741  1
  Ti  Ti10222  1  0.16666664  0.19047621  0.60740741  1
  Ti  Ti10223  1  0.16666664  0.26190479  0.60740741  1
  Ti  Ti10224  1  0.16666664  0.33333336  0.60740741  1
  Ti  Ti10225  1  0.16666664  0.40476193  0.60740741  1
  Ti  Ti10226  1  0.16666664  0.47619050  0.60740741  1
  Ti  Ti10227  1  0.16666664  0.54761907  0.60740741  1
  Ti  Ti10228  1  0.16666664  0.61904764  0.60740741  1
  Ti  Ti10229  1  0.16666664  0.69047621  0.60740741  1
  Ti  Ti10230  1  0.16666664  0.76190479  0.60740741  1
  Ti  Ti10231  1  0.16666664  0.83333336  0.60740741  1
  Ti  Ti10232  1  0.16666664  0.90476193  0.60740741  1
  Ti  Ti10233  1  0.16666664  0.97619050  0.60740741  1
  Ti  Ti10234  1  0.23809521  0.04761907  0.60740741  1
  Ti  Ti10235  1  0.23809521  0.11904764  0.60740741  1
  Ti  Ti10236  1  0.23809521  0.19047621  0.60740741  1
  Ti  Ti10237  1  0.23809521  0.26190479  0.60740741  1
  Ti  Ti10238  1  0.23809521  0.33333336  0.60740741  1
  Ti  Ti10239  1  0.23809521  0.40476193  0.60740741  1
  Ti  Ti10240  1  0.23809521  0.47619050  0.60740741  1
  Ti  Ti10241  1  0.23809521  0.54761907  0.60740741  1
  Ti  Ti10242  1  0.23809521  0.61904764  0.60740741  1
  Ti  Ti10243  1  0.23809521  0.69047621  0.60740741  1
  Ti  Ti10244  1  0.23809521  0.76190479  0.60740741  1
  Ti  Ti10245  1  0.23809521  0.83333336  0.60740741  1
  Ti  Ti10246  1  0.23809521  0.90476193  0.60740741  1
  Ti  Ti10247  1  0.23809521  0.97619050  0.60740741  1
  Ti  Ti10248  1  0.30952379  0.04761907  0.60740741  1
  Ti  Ti10249  1  0.30952379  0.11904764  0.60740741  1
  Ti  Ti10250  1  0.30952379  0.19047621  0.60740741  1
  Ti  Ti10251  1  0.30952379  0.26190479  0.60740741  1
  Ti  Ti10252  1  0.30952379  0.33333336  0.60740741  1
  Ti  Ti10253  1  0.30952379  0.40476193  0.60740741  1
  Ti  Ti10254  1  0.30952379  0.47619050  0.60740741  1
  Ti  Ti10255  1  0.30952379  0.54761907  0.60740741  1
  Ti  Ti10256  1  0.30952379  0.61904764  0.60740741  1
  Ti  Ti10257  1  0.30952379  0.69047621  0.60740741  1
  Ti  Ti10258  1  0.30952379  0.76190479  0.60740741  1
  Ti  Ti10259  1  0.30952379  0.83333336  0.60740741  1
  Ti  Ti10260  1  0.30952379  0.90476193  0.60740741  1
  Ti  Ti10261  1  0.30952379  0.97619050  0.60740741  1
  Ti  Ti10262  1  0.38095236  0.04761907  0.60740741  1
  Ti  Ti10263  1  0.38095236  0.11904764  0.60740741  1
  Ti  Ti10264  1  0.38095236  0.19047621  0.60740741  1
  Ti  Ti10265  1  0.38095236  0.26190479  0.60740741  1
  Ti  Ti10266  1  0.38095236  0.33333336  0.60740741  1
  Ti  Ti10267  1  0.38095236  0.40476193  0.60740741  1
  Ti  Ti10268  1  0.38095236  0.47619050  0.60740741  1
  Ti  Ti10269  1  0.38095236  0.54761907  0.60740741  1
  Ti  Ti10270  1  0.38095236  0.61904764  0.60740741  1
  Ti  Ti10271  1  0.38095236  0.69047621  0.60740741  1
  Ti  Ti10272  1  0.38095236  0.76190479  0.60740741  1
  Ti  Ti10273  1  0.38095236  0.83333336  0.60740741  1
  Ti  Ti10274  1  0.38095236  0.90476193  0.60740741  1
  Ti  Ti10275  1  0.38095236  0.97619050  0.60740741  1
  Ti  Ti10276  1  0.45238093  0.04761907  0.60740741  1
  Ti  Ti10277  1  0.45238093  0.11904764  0.60740741  1
  Ti  Ti10278  1  0.45238093  0.19047621  0.60740741  1
  Ti  Ti10279  1  0.45238093  0.26190479  0.60740741  1
  Ti  Ti10280  1  0.45238093  0.33333336  0.60740741  1
  Ti  Ti10281  1  0.45238093  0.40476193  0.60740741  1
  Ti  Ti10282  1  0.45238093  0.47619050  0.60740741  1
  Ti  Ti10283  1  0.45238093  0.54761907  0.60740741  1
  Ti  Ti10284  1  0.45238093  0.61904764  0.60740741  1
  Ti  Ti10285  1  0.45238093  0.69047621  0.60740741  1
  Ti  Ti10286  1  0.45238093  0.76190479  0.60740741  1
  Ti  Ti10287  1  0.45238093  0.83333336  0.60740741  1
  Ti  Ti10288  1  0.45238093  0.90476193  0.60740741  1
  Ti  Ti10289  1  0.45238093  0.97619050  0.60740741  1
  Ti  Ti10290  1  0.52380950  0.04761907  0.60740741  1
  Ti  Ti10291  1  0.52380950  0.11904764  0.60740741  1
  Ti  Ti10292  1  0.52380950  0.19047621  0.60740741  1
  Ti  Ti10293  1  0.52380950  0.26190479  0.60740741  1
  Ti  Ti10294  1  0.52380950  0.33333336  0.60740741  1
  Ti  Ti10295  1  0.52380950  0.40476193  0.60740741  1
  Ti  Ti10296  1  0.52380950  0.47619050  0.60740741  1
  Ti  Ti10297  1  0.52380950  0.54761907  0.60740741  1
  Ti  Ti10298  1  0.52380950  0.61904764  0.60740741  1
  Ti  Ti10299  1  0.52380950  0.69047621  0.60740741  1
  Ti  Ti10300  1  0.52380950  0.76190479  0.60740741  1
  Ti  Ti10301  1  0.52380950  0.83333336  0.60740741  1
  Ti  Ti10302  1  0.52380950  0.90476193  0.60740741  1
  Ti  Ti10303  1  0.52380950  0.97619050  0.60740741  1
  Ti  Ti10304  1  0.59523807  0.04761907  0.60740741  1
  Ti  Ti10305  1  0.59523807  0.11904764  0.60740741  1
  Ti  Ti10306  1  0.59523807  0.19047621  0.60740741  1
  Ti  Ti10307  1  0.59523807  0.26190479  0.60740741  1
  Ti  Ti10308  1  0.59523807  0.33333336  0.60740741  1
  Ti  Ti10309  1  0.59523807  0.40476193  0.60740741  1
  Ti  Ti10310  1  0.59523807  0.47619050  0.60740741  1
  Ti  Ti10311  1  0.59523807  0.54761907  0.60740741  1
  Ti  Ti10312  1  0.59523807  0.61904764  0.60740741  1
  Ti  Ti10313  1  0.59523807  0.69047621  0.60740741  1
  Ti  Ti10314  1  0.59523807  0.76190479  0.60740741  1
  Ti  Ti10315  1  0.59523807  0.83333336  0.60740741  1
  Ti  Ti10316  1  0.59523807  0.90476193  0.60740741  1
  Ti  Ti10317  1  0.59523807  0.97619050  0.60740741  1
  Ti  Ti10318  1  0.66666664  0.04761907  0.60740741  1
  Ti  Ti10319  1  0.66666664  0.11904764  0.60740741  1
  Ti  Ti10320  1  0.66666664  0.19047621  0.60740741  1
  Ti  Ti10321  1  0.66666664  0.26190479  0.60740741  1
  Ti  Ti10322  1  0.66666664  0.33333336  0.60740741  1
  Ti  Ti10323  1  0.66666664  0.40476193  0.60740741  1
  Ti  Ti10324  1  0.66666664  0.47619050  0.60740741  1
  Ti  Ti10325  1  0.66666664  0.54761907  0.60740741  1
  Ti  Ti10326  1  0.66666664  0.61904764  0.60740741  1
  Ti  Ti10327  1  0.66666664  0.69047621  0.60740741  1
  Ti  Ti10328  1  0.66666664  0.76190479  0.60740741  1
  Ti  Ti10329  1  0.66666664  0.83333336  0.60740741  1
  Ti  Ti10330  1  0.66666664  0.90476193  0.60740741  1
  Ti  Ti10331  1  0.66666664  0.97619050  0.60740741  1
  Ti  Ti10332  1  0.73809521  0.04761907  0.60740741  1
  Ti  Ti10333  1  0.73809521  0.11904764  0.60740741  1
  Ti  Ti10334  1  0.73809521  0.19047621  0.60740741  1
  Ti  Ti10335  1  0.73809521  0.26190479  0.60740741  1
  Ti  Ti10336  1  0.73809521  0.33333336  0.60740741  1
  Ti  Ti10337  1  0.73809521  0.40476193  0.60740741  1
  Ti  Ti10338  1  0.73809521  0.47619050  0.60740741  1
  Ti  Ti10339  1  0.73809521  0.54761907  0.60740741  1
  Ti  Ti10340  1  0.73809521  0.61904764  0.60740741  1
  Ti  Ti10341  1  0.73809521  0.69047621  0.60740741  1
  Ti  Ti10342  1  0.73809521  0.76190479  0.60740741  1
  Ti  Ti10343  1  0.73809521  0.83333336  0.60740741  1
  Ti  Ti10344  1  0.73809521  0.90476193  0.60740741  1
  Ti  Ti10345  1  0.73809521  0.97619050  0.60740741  1
  Ti  Ti10346  1  0.80952379  0.04761907  0.60740741  1
  Ti  Ti10347  1  0.80952379  0.11904764  0.60740741  1
  Ti  Ti10348  1  0.80952379  0.19047621  0.60740741  1
  Ti  Ti10349  1  0.80952379  0.26190479  0.60740741  1
  Ti  Ti10350  1  0.80952379  0.33333336  0.60740741  1
  Ti  Ti10351  1  0.80952379  0.40476193  0.60740741  1
  Ti  Ti10352  1  0.80952379  0.47619050  0.60740741  1
  Ti  Ti10353  1  0.80952379  0.54761907  0.60740741  1
  Ti  Ti10354  1  0.80952379  0.61904764  0.60740741  1
  Ti  Ti10355  1  0.80952379  0.69047621  0.60740741  1
  Ti  Ti10356  1  0.80952379  0.76190479  0.60740741  1
  Ti  Ti10357  1  0.80952379  0.83333336  0.60740741  1
  Ti  Ti10358  1  0.80952379  0.90476193  0.60740741  1
  Ti  Ti10359  1  0.80952379  0.97619050  0.60740741  1
  Ti  Ti10360  1  0.88095236  0.04761907  0.60740741  1
  Ti  Ti10361  1  0.88095236  0.11904764  0.60740741  1
  Ti  Ti10362  1  0.88095236  0.19047621  0.60740741  1
  Ti  Ti10363  1  0.88095236  0.26190479  0.60740741  1
  Ti  Ti10364  1  0.88095236  0.33333336  0.60740741  1
  Ti  Ti10365  1  0.88095236  0.40476193  0.60740741  1
  Ti  Ti10366  1  0.88095236  0.47619050  0.60740741  1
  Ti  Ti10367  1  0.88095236  0.54761907  0.60740741  1
  Ti  Ti10368  1  0.88095236  0.61904764  0.60740741  1
  Ti  Ti10369  1  0.88095236  0.69047621  0.60740741  1
  Ti  Ti10370  1  0.88095236  0.76190479  0.60740741  1
  Ti  Ti10371  1  0.88095236  0.83333336  0.60740741  1
  Ti  Ti10372  1  0.88095236  0.90476193  0.60740741  1
  Ti  Ti10373  1  0.88095236  0.97619050  0.60740741  1
  Ti  Ti10374  1  0.95238093  0.04761907  0.60740741  1
  Ti  Ti10375  1  0.95238093  0.11904764  0.60740741  1
  Ti  Ti10376  1  0.95238093  0.19047621  0.60740741  1
  Ti  Ti10377  1  0.95238093  0.26190479  0.60740741  1
  Ti  Ti10378  1  0.95238093  0.33333336  0.60740741  1
  Ti  Ti10379  1  0.95238093  0.40476193  0.60740741  1
  Ti  Ti10380  1  0.95238093  0.47619050  0.60740741  1
  Ti  Ti10381  1  0.95238093  0.54761907  0.60740741  1
  Ti  Ti10382  1  0.95238093  0.61904764  0.60740741  1
  Ti  Ti10383  1  0.95238093  0.69047621  0.60740741  1
  Ti  Ti10384  1  0.95238093  0.76190479  0.60740741  1
  Ti  Ti10385  1  0.95238093  0.83333336  0.60740741  1
  Ti  Ti10386  1  0.95238093  0.90476193  0.60740741  1
  Ti  Ti10387  1  0.95238093  0.97619050  0.60740741  1
  Ti  Ti10388  1  0.04761907  0.02380950  0.60740741  1
  Ti  Ti10389  1  0.04761907  0.09523807  0.60740741  1
  Ti  Ti10390  1  0.04761907  0.16666664  0.60740741  1
  Ti  Ti10391  1  0.04761907  0.23809521  0.60740741  1
  Ti  Ti10392  1  0.04761907  0.30952379  0.60740741  1
  Ti  Ti10393  1  0.04761907  0.38095236  0.60740741  1
  Ti  Ti10394  1  0.04761907  0.45238093  0.60740741  1
  Ti  Ti10395  1  0.04761907  0.52380950  0.60740741  1
  Ti  Ti10396  1  0.04761907  0.59523807  0.60740741  1
  Ti  Ti10397  1  0.04761907  0.66666664  0.60740741  1
  Ti  Ti10398  1  0.04761907  0.73809521  0.60740741  1
  Ti  Ti10399  1  0.04761907  0.80952379  0.60740741  1
  Ti  Ti10400  1  0.04761907  0.88095236  0.60740741  1
  Ti  Ti10401  1  0.04761907  0.95238093  0.60740741  1
  Ti  Ti10402  1  0.11904764  0.02380950  0.60740741  1
  Ti  Ti10403  1  0.11904764  0.09523807  0.60740741  1
  Ti  Ti10404  1  0.11904764  0.16666664  0.60740741  1
  Ti  Ti10405  1  0.11904764  0.23809521  0.60740741  1
  Ti  Ti10406  1  0.11904764  0.30952379  0.60740741  1
  Ti  Ti10407  1  0.11904764  0.38095236  0.60740741  1
  Ti  Ti10408  1  0.11904764  0.45238093  0.60740741  1
  Ti  Ti10409  1  0.11904764  0.52380950  0.60740741  1
  Ti  Ti10410  1  0.11904764  0.59523807  0.60740741  1
  Ti  Ti10411  1  0.11904764  0.66666664  0.60740741  1
  Ti  Ti10412  1  0.11904764  0.73809521  0.60740741  1
  Ti  Ti10413  1  0.11904764  0.80952379  0.60740741  1
  Ti  Ti10414  1  0.11904764  0.88095236  0.60740741  1
  Ti  Ti10415  1  0.11904764  0.95238093  0.60740741  1
  Ti  Ti10416  1  0.19047621  0.02380950  0.60740741  1
  Ti  Ti10417  1  0.19047621  0.09523807  0.60740741  1
  Ti  Ti10418  1  0.19047621  0.16666664  0.60740741  1
  Ti  Ti10419  1  0.19047621  0.23809521  0.60740741  1
  Ti  Ti10420  1  0.19047621  0.30952379  0.60740741  1
  Ti  Ti10421  1  0.19047621  0.38095236  0.60740741  1
  Ti  Ti10422  1  0.19047621  0.45238093  0.60740741  1
  Ti  Ti10423  1  0.19047621  0.52380950  0.60740741  1
  Ti  Ti10424  1  0.19047621  0.59523807  0.60740741  1
  Ti  Ti10425  1  0.19047621  0.66666664  0.60740741  1
  Ti  Ti10426  1  0.19047621  0.73809521  0.60740741  1
  Ti  Ti10427  1  0.19047621  0.80952379  0.60740741  1
  Ti  Ti10428  1  0.19047621  0.88095236  0.60740741  1
  Ti  Ti10429  1  0.19047621  0.95238093  0.60740741  1
  Ti  Ti10430  1  0.26190479  0.02380950  0.60740741  1
  Ti  Ti10431  1  0.26190479  0.09523807  0.60740741  1
  Ti  Ti10432  1  0.26190479  0.16666664  0.60740741  1
  Ti  Ti10433  1  0.26190479  0.23809521  0.60740741  1
  Ti  Ti10434  1  0.26190479  0.30952379  0.60740741  1
  Ti  Ti10435  1  0.26190479  0.38095236  0.60740741  1
  Ti  Ti10436  1  0.26190479  0.45238093  0.60740741  1
  Ti  Ti10437  1  0.26190479  0.52380950  0.60740741  1
  Ti  Ti10438  1  0.26190479  0.59523807  0.60740741  1
  Ti  Ti10439  1  0.26190479  0.66666664  0.60740741  1
  Ti  Ti10440  1  0.26190479  0.73809521  0.60740741  1
  Ti  Ti10441  1  0.26190479  0.80952379  0.60740741  1
  Ti  Ti10442  1  0.26190479  0.88095236  0.60740741  1
  Ti  Ti10443  1  0.26190479  0.95238093  0.60740741  1
  Ti  Ti10444  1  0.33333336  0.02380950  0.60740741  1
  Ti  Ti10445  1  0.33333336  0.09523807  0.60740741  1
  Ti  Ti10446  1  0.33333336  0.16666664  0.60740741  1
  Ti  Ti10447  1  0.33333336  0.23809521  0.60740741  1
  Ti  Ti10448  1  0.33333336  0.30952379  0.60740741  1
  Ti  Ti10449  1  0.33333336  0.38095236  0.60740741  1
  Ti  Ti10450  1  0.33333336  0.45238093  0.60740741  1
  Ti  Ti10451  1  0.33333336  0.52380950  0.60740741  1
  Ti  Ti10452  1  0.33333336  0.59523807  0.60740741  1
  Ti  Ti10453  1  0.33333336  0.66666664  0.60740741  1
  Ti  Ti10454  1  0.33333336  0.73809521  0.60740741  1
  Ti  Ti10455  1  0.33333336  0.80952379  0.60740741  1
  Ti  Ti10456  1  0.33333336  0.88095236  0.60740741  1
  Ti  Ti10457  1  0.33333336  0.95238093  0.60740741  1
  Ti  Ti10458  1  0.40476193  0.02380950  0.60740741  1
  Ti  Ti10459  1  0.40476193  0.09523807  0.60740741  1
  Ti  Ti10460  1  0.40476193  0.16666664  0.60740741  1
  Ti  Ti10461  1  0.40476193  0.23809521  0.60740741  1
  Ti  Ti10462  1  0.40476193  0.30952379  0.60740741  1
  Ti  Ti10463  1  0.40476193  0.38095236  0.60740741  1
  Ti  Ti10464  1  0.40476193  0.45238093  0.60740741  1
  Ti  Ti10465  1  0.40476193  0.52380950  0.60740741  1
  Ti  Ti10466  1  0.40476193  0.59523807  0.60740741  1
  Ti  Ti10467  1  0.40476193  0.66666664  0.60740741  1
  Ti  Ti10468  1  0.40476193  0.73809521  0.60740741  1
  Ti  Ti10469  1  0.40476193  0.80952379  0.60740741  1
  Ti  Ti10470  1  0.40476193  0.88095236  0.60740741  1
  Ti  Ti10471  1  0.40476193  0.95238093  0.60740741  1
  Ti  Ti10472  1  0.47619050  0.02380950  0.60740741  1
  Ti  Ti10473  1  0.47619050  0.09523807  0.60740741  1
  Ti  Ti10474  1  0.47619050  0.16666664  0.60740741  1
  Ti  Ti10475  1  0.47619050  0.23809521  0.60740741  1
  Ti  Ti10476  1  0.47619050  0.30952379  0.60740741  1
  Ti  Ti10477  1  0.47619050  0.38095236  0.60740741  1
  Ti  Ti10478  1  0.47619050  0.45238093  0.60740741  1
  Ti  Ti10479  1  0.47619050  0.52380950  0.60740741  1
  Ti  Ti10480  1  0.47619050  0.59523807  0.60740741  1
  Ti  Ti10481  1  0.47619050  0.66666664  0.60740741  1
  Ti  Ti10482  1  0.47619050  0.73809521  0.60740741  1
  Ti  Ti10483  1  0.47619050  0.80952379  0.60740741  1
  Ti  Ti10484  1  0.47619050  0.88095236  0.60740741  1
  Ti  Ti10485  1  0.47619050  0.95238093  0.60740741  1
  Ti  Ti10486  1  0.54761907  0.02380950  0.60740741  1
  Ti  Ti10487  1  0.54761907  0.09523807  0.60740741  1
  Ti  Ti10488  1  0.54761907  0.16666664  0.60740741  1
  Ti  Ti10489  1  0.54761907  0.23809521  0.60740741  1
  Ti  Ti10490  1  0.54761907  0.30952379  0.60740741  1
  Ti  Ti10491  1  0.54761907  0.38095236  0.60740741  1
  Ti  Ti10492  1  0.54761907  0.45238093  0.60740741  1
  Ti  Ti10493  1  0.54761907  0.52380950  0.60740741  1
  Ti  Ti10494  1  0.54761907  0.59523807  0.60740741  1
  Ti  Ti10495  1  0.54761907  0.66666664  0.60740741  1
  Ti  Ti10496  1  0.54761907  0.73809521  0.60740741  1
  Ti  Ti10497  1  0.54761907  0.80952379  0.60740741  1
  Ti  Ti10498  1  0.54761907  0.88095236  0.60740741  1
  Ti  Ti10499  1  0.54761907  0.95238093  0.60740741  1
  Ti  Ti10500  1  0.61904764  0.02380950  0.60740741  1
  Ti  Ti10501  1  0.61904764  0.09523807  0.60740741  1
  Ti  Ti10502  1  0.61904764  0.16666664  0.60740741  1
  Ti  Ti10503  1  0.61904764  0.23809521  0.60740741  1
  Ti  Ti10504  1  0.61904764  0.30952379  0.60740741  1
  Ti  Ti10505  1  0.61904764  0.38095236  0.60740741  1
  Ti  Ti10506  1  0.61904764  0.45238093  0.60740741  1
  Ti  Ti10507  1  0.61904764  0.52380950  0.60740741  1
  Ti  Ti10508  1  0.61904764  0.59523807  0.60740741  1
  Ti  Ti10509  1  0.61904764  0.66666664  0.60740741  1
  Ti  Ti10510  1  0.61904764  0.73809521  0.60740741  1
  Ti  Ti10511  1  0.61904764  0.80952379  0.60740741  1
  Ti  Ti10512  1  0.61904764  0.88095236  0.60740741  1
  Ti  Ti10513  1  0.61904764  0.95238093  0.60740741  1
  Ti  Ti10514  1  0.69047621  0.02380950  0.60740741  1
  Ti  Ti10515  1  0.69047621  0.09523807  0.60740741  1
  Ti  Ti10516  1  0.69047621  0.16666664  0.60740741  1
  Ti  Ti10517  1  0.69047621  0.23809521  0.60740741  1
  Ti  Ti10518  1  0.69047621  0.30952379  0.60740741  1
  Ti  Ti10519  1  0.69047621  0.38095236  0.60740741  1
  Ti  Ti10520  1  0.69047621  0.45238093  0.60740741  1
  Ti  Ti10521  1  0.69047621  0.52380950  0.60740741  1
  Ti  Ti10522  1  0.69047621  0.59523807  0.60740741  1
  Ti  Ti10523  1  0.69047621  0.66666664  0.60740741  1
  Ti  Ti10524  1  0.69047621  0.73809521  0.60740741  1
  Ti  Ti10525  1  0.69047621  0.80952379  0.60740741  1
  Ti  Ti10526  1  0.69047621  0.88095236  0.60740741  1
  Ti  Ti10527  1  0.69047621  0.95238093  0.60740741  1
  Ti  Ti10528  1  0.76190479  0.02380950  0.60740741  1
  Ti  Ti10529  1  0.76190479  0.09523807  0.60740741  1
  Ti  Ti10530  1  0.76190479  0.16666664  0.60740741  1
  Ti  Ti10531  1  0.76190479  0.23809521  0.60740741  1
  Ti  Ti10532  1  0.76190479  0.30952379  0.60740741  1
  Ti  Ti10533  1  0.76190479  0.38095236  0.60740741  1
  Ti  Ti10534  1  0.76190479  0.45238093  0.60740741  1
  Ti  Ti10535  1  0.76190479  0.52380950  0.60740741  1
  Ti  Ti10536  1  0.76190479  0.59523807  0.60740741  1
  Ti  Ti10537  1  0.76190479  0.66666664  0.60740741  1
  Ti  Ti10538  1  0.76190479  0.73809521  0.60740741  1
  Ti  Ti10539  1  0.76190479  0.80952379  0.60740741  1
  Ti  Ti10540  1  0.76190479  0.88095236  0.60740741  1
  Ti  Ti10541  1  0.76190479  0.95238093  0.60740741  1
  Ti  Ti10542  1  0.83333336  0.02380950  0.60740741  1
  Ti  Ti10543  1  0.83333336  0.09523807  0.60740741  1
  Ti  Ti10544  1  0.83333336  0.16666664  0.60740741  1
  Ti  Ti10545  1  0.83333336  0.23809521  0.60740741  1
  Ti  Ti10546  1  0.83333336  0.30952379  0.60740741  1
  Ti  Ti10547  1  0.83333336  0.38095236  0.60740741  1
  Ti  Ti10548  1  0.83333336  0.45238093  0.60740741  1
  Ti  Ti10549  1  0.83333336  0.52380950  0.60740741  1
  Ti  Ti10550  1  0.83333336  0.59523807  0.60740741  1
  Ti  Ti10551  1  0.83333336  0.66666664  0.60740741  1
  Ti  Ti10552  1  0.83333336  0.73809521  0.60740741  1
  Ti  Ti10553  1  0.83333336  0.80952379  0.60740741  1
  Ti  Ti10554  1  0.83333336  0.88095236  0.60740741  1
  Ti  Ti10555  1  0.83333336  0.95238093  0.60740741  1
  Ti  Ti10556  1  0.90476193  0.02380950  0.60740741  1
  Ti  Ti10557  1  0.90476193  0.09523807  0.60740741  1
  Ti  Ti10558  1  0.90476193  0.16666664  0.60740741  1
  Ti  Ti10559  1  0.90476193  0.23809521  0.60740741  1
  Ti  Ti10560  1  0.90476193  0.30952379  0.60740741  1
  Ti  Ti10561  1  0.90476193  0.38095236  0.60740741  1
  Ti  Ti10562  1  0.90476193  0.45238093  0.60740741  1
  Ti  Ti10563  1  0.90476193  0.52380950  0.60740741  1
  Ti  Ti10564  1  0.90476193  0.59523807  0.60740741  1
  Ti  Ti10565  1  0.90476193  0.66666664  0.60740741  1
  Ti  Ti10566  1  0.90476193  0.73809521  0.60740741  1
  Ti  Ti10567  1  0.90476193  0.80952379  0.60740741  1
  Ti  Ti10568  1  0.90476193  0.88095236  0.60740741  1
  Ti  Ti10569  1  0.90476193  0.95238093  0.60740741  1
  Ti  Ti10570  1  0.97619050  0.02380950  0.60740741  1
  Ti  Ti10571  1  0.97619050  0.09523807  0.60740741  1
  Ti  Ti10572  1  0.97619050  0.16666664  0.60740741  1
  Ti  Ti10573  1  0.97619050  0.23809521  0.60740741  1
  Ti  Ti10574  1  0.97619050  0.30952379  0.60740741  1
  Ti  Ti10575  1  0.97619050  0.38095236  0.60740741  1
  Ti  Ti10576  1  0.97619050  0.45238093  0.60740741  1
  Ti  Ti10577  1  0.97619050  0.52380950  0.60740741  1
  Ti  Ti10578  1  0.97619050  0.59523807  0.60740741  1
  Ti  Ti10579  1  0.97619050  0.66666664  0.60740741  1
  Ti  Ti10580  1  0.97619050  0.73809521  0.60740741  1
  Ti  Ti10581  1  0.97619050  0.80952379  0.60740741  1
  Ti  Ti10582  1  0.97619050  0.88095236  0.60740741  1
  Ti  Ti10583  1  0.97619050  0.95238093  0.60740741  1
  Ti  Ti10584  1  0.00000000  0.00000000  0.64074074  1
  Ti  Ti10585  1  0.00000000  0.07142857  0.64074074  1
  Ti  Ti10586  1  0.00000000  0.14285714  0.64074074  1
  Ti  Ti10587  1  0.00000000  0.21428571  0.64074074  1
  Ti  Ti10588  1  0.00000000  0.28571429  0.64074074  1
  Ti  Ti10589  1  0.00000000  0.35714286  0.64074074  1
  Ti  Ti10590  1  0.00000000  0.42857143  0.64074074  1
  Ti  Ti10591  1  0.00000000  0.50000000  0.64074074  1
  Ti  Ti10592  1  0.00000000  0.57142857  0.64074074  1
  Ti  Ti10593  1  0.00000000  0.64285714  0.64074074  1
  Ti  Ti10594  1  0.00000000  0.71428571  0.64074074  1
  Ti  Ti10595  1  1.00000000  0.78571429  0.64074074  1
  Ti  Ti10596  1  0.00000000  0.85714286  0.64074074  1
  Ti  Ti10597  1  0.00000000  0.92857143  0.64074074  1
  Ti  Ti10598  1  0.07142857  0.00000000  0.64074074  1
  Ti  Ti10599  1  0.07142857  0.07142857  0.64074074  1
  Ti  Ti10600  1  0.07142857  0.14285714  0.64074074  1
  Ti  Ti10601  1  0.07142857  0.21428571  0.64074074  1
  Ti  Ti10602  1  0.07142857  0.28571429  0.64074074  1
  Ti  Ti10603  1  0.07142857  0.35714286  0.64074074  1
  Ti  Ti10604  1  0.07142857  0.42857143  0.64074074  1
  Ti  Ti10605  1  0.07142857  0.50000000  0.64074074  1
  Ti  Ti10606  1  0.07142857  0.57142857  0.64074074  1
  Ti  Ti10607  1  0.07142857  0.64285714  0.64074074  1
  Ti  Ti10608  1  0.07142857  0.71428571  0.64074074  1
  Ti  Ti10609  1  0.07142857  0.78571429  0.64074074  1
  Ti  Ti10610  1  0.07142857  0.85714286  0.64074074  1
  Ti  Ti10611  1  0.07142857  0.92857143  0.64074074  1
  Ti  Ti10612  1  0.14285714  0.00000000  0.64074074  1
  Ti  Ti10613  1  0.14285714  0.07142857  0.64074074  1
  Ti  Ti10614  1  0.14285714  0.14285714  0.64074074  1
  Ti  Ti10615  1  0.14285714  0.21428571  0.64074074  1
  Ti  Ti10616  1  0.14285714  0.28571429  0.64074074  1
  Ti  Ti10617  1  0.14285714  0.35714286  0.64074074  1
  Ti  Ti10618  1  0.14285714  0.42857143  0.64074074  1
  Ti  Ti10619  1  0.14285714  0.50000000  0.64074074  1
  Ti  Ti10620  1  0.14285714  0.57142857  0.64074074  1
  Ti  Ti10621  1  0.14285714  0.64285714  0.64074074  1
  Ti  Ti10622  1  0.14285714  0.71428571  0.64074074  1
  Ti  Ti10623  1  0.14285714  0.78571429  0.64074074  1
  Ti  Ti10624  1  0.14285714  0.85714286  0.64074074  1
  Ti  Ti10625  1  0.14285714  0.92857143  0.64074074  1
  Ti  Ti10626  1  0.21428571  0.00000000  0.64074074  1
  Ti  Ti10627  1  0.21428571  0.07142857  0.64074074  1
  Ti  Ti10628  1  0.21428571  0.14285714  0.64074074  1
  Ti  Ti10629  1  0.21428571  0.21428571  0.64074074  1
  Ti  Ti10630  1  0.21428571  0.28571429  0.64074074  1
  Ti  Ti10631  1  0.21428571  0.35714286  0.64074074  1
  Ti  Ti10632  1  0.21428571  0.42857143  0.64074074  1
  Ti  Ti10633  1  0.21428571  0.50000000  0.64074074  1
  Ti  Ti10634  1  0.21428571  0.57142857  0.64074074  1
  Ti  Ti10635  1  0.21428571  0.64285714  0.64074074  1
  Ti  Ti10636  1  0.21428571  0.71428571  0.64074074  1
  Ti  Ti10637  1  0.21428571  0.78571429  0.64074074  1
  Ti  Ti10638  1  0.21428571  0.85714286  0.64074074  1
  Ti  Ti10639  1  0.21428571  0.92857143  0.64074074  1
  Ti  Ti10640  1  0.28571429  0.00000000  0.64074074  1
  Ti  Ti10641  1  0.28571429  0.07142857  0.64074074  1
  Ti  Ti10642  1  0.28571429  0.14285714  0.64074074  1
  Ti  Ti10643  1  0.28571429  0.21428571  0.64074074  1
  Ti  Ti10644  1  0.28571429  0.28571429  0.64074074  1
  Ti  Ti10645  1  0.28571429  0.35714286  0.64074074  1
  Ti  Ti10646  1  0.28571429  0.42857143  0.64074074  1
  Ti  Ti10647  1  0.28571429  0.50000000  0.64074074  1
  Ti  Ti10648  1  0.28571429  0.57142857  0.64074074  1
  Ti  Ti10649  1  0.28571429  0.64285714  0.64074074  1
  Ti  Ti10650  1  0.28571429  0.71428571  0.64074074  1
  Ti  Ti10651  1  0.28571429  0.78571429  0.64074074  1
  Ti  Ti10652  1  0.28571429  0.85714286  0.64074074  1
  Ti  Ti10653  1  0.28571429  0.92857143  0.64074074  1
  Ti  Ti10654  1  0.35714286  0.00000000  0.64074074  1
  Ti  Ti10655  1  0.35714286  0.07142857  0.64074074  1
  Ti  Ti10656  1  0.35714286  0.14285714  0.64074074  1
  Ti  Ti10657  1  0.35714286  0.21428571  0.64074074  1
  Ti  Ti10658  1  0.35714286  0.28571429  0.64074074  1
  Ti  Ti10659  1  0.35714286  0.35714286  0.64074074  1
  Ti  Ti10660  1  0.35714286  0.42857143  0.64074074  1
  Ti  Ti10661  1  0.35714286  0.50000000  0.64074074  1
  Ti  Ti10662  1  0.35714286  0.57142857  0.64074074  1
  Ti  Ti10663  1  0.35714286  0.64285714  0.64074074  1
  Ti  Ti10664  1  0.35714286  0.71428571  0.64074074  1
  Ti  Ti10665  1  0.35714286  0.78571429  0.64074074  1
  Ti  Ti10666  1  0.35714286  0.85714286  0.64074074  1
  Ti  Ti10667  1  0.35714286  0.92857143  0.64074074  1
  Ti  Ti10668  1  0.42857143  0.00000000  0.64074074  1
  Ti  Ti10669  1  0.42857143  0.07142857  0.64074074  1
  Ti  Ti10670  1  0.42857143  0.14285714  0.64074074  1
  Ti  Ti10671  1  0.42857143  0.21428571  0.64074074  1
  Ti  Ti10672  1  0.42857143  0.28571429  0.64074074  1
  Ti  Ti10673  1  0.42857143  0.35714286  0.64074074  1
  Ti  Ti10674  1  0.42857143  0.42857143  0.64074074  1
  Ti  Ti10675  1  0.42857143  0.50000000  0.64074074  1
  Ti  Ti10676  1  0.42857143  0.57142857  0.64074074  1
  Ti  Ti10677  1  0.42857143  0.64285714  0.64074074  1
  Ti  Ti10678  1  0.42857143  0.71428571  0.64074074  1
  Ti  Ti10679  1  0.42857143  0.78571429  0.64074074  1
  Ti  Ti10680  1  0.42857143  0.85714286  0.64074074  1
  Ti  Ti10681  1  0.42857143  0.92857143  0.64074074  1
  Ti  Ti10682  1  0.50000000  0.00000000  0.64074074  1
  Ti  Ti10683  1  0.50000000  0.07142857  0.64074074  1
  Ti  Ti10684  1  0.50000000  0.14285714  0.64074074  1
  Ti  Ti10685  1  0.50000000  0.21428571  0.64074074  1
  Ti  Ti10686  1  0.50000000  0.28571429  0.64074074  1
  Ti  Ti10687  1  0.50000000  0.35714286  0.64074074  1
  Ti  Ti10688  1  0.50000000  0.42857143  0.64074074  1
  Ti  Ti10689  1  0.50000000  0.50000000  0.64074074  1
  Ti  Ti10690  1  0.50000000  0.57142857  0.64074074  1
  Ti  Ti10691  1  0.50000000  0.64285714  0.64074074  1
  Ti  Ti10692  1  0.50000000  0.71428571  0.64074074  1
  Ti  Ti10693  1  0.50000000  0.78571429  0.64074074  1
  Ti  Ti10694  1  0.50000000  0.85714286  0.64074074  1
  Ti  Ti10695  1  0.50000000  0.92857143  0.64074074  1
  Ti  Ti10696  1  0.57142857  0.00000000  0.64074074  1
  Ti  Ti10697  1  0.57142857  0.07142857  0.64074074  1
  Ti  Ti10698  1  0.57142857  0.14285714  0.64074074  1
  Ti  Ti10699  1  0.57142857  0.21428571  0.64074074  1
  Ti  Ti10700  1  0.57142857  0.28571429  0.64074074  1
  Ti  Ti10701  1  0.57142857  0.35714286  0.64074074  1
  Ti  Ti10702  1  0.57142857  0.42857143  0.64074074  1
  Ti  Ti10703  1  0.57142857  0.50000000  0.64074074  1
  Ti  Ti10704  1  0.57142857  0.57142857  0.64074074  1
  Ti  Ti10705  1  0.57142857  0.64285714  0.64074074  1
  Ti  Ti10706  1  0.57142857  0.71428571  0.64074074  1
  Ti  Ti10707  1  0.57142857  0.78571429  0.64074074  1
  Ti  Ti10708  1  0.57142857  0.85714286  0.64074074  1
  Ti  Ti10709  1  0.57142857  0.92857143  0.64074074  1
  Ti  Ti10710  1  0.64285714  0.00000000  0.64074074  1
  Ti  Ti10711  1  0.64285714  0.07142857  0.64074074  1
  Ti  Ti10712  1  0.64285714  0.14285714  0.64074074  1
  Ti  Ti10713  1  0.64285714  0.21428571  0.64074074  1
  Ti  Ti10714  1  0.64285714  0.28571429  0.64074074  1
  Ti  Ti10715  1  0.64285714  0.35714286  0.64074074  1
  Ti  Ti10716  1  0.64285714  0.42857143  0.64074074  1
  Ti  Ti10717  1  0.64285714  0.50000000  0.64074074  1
  Ti  Ti10718  1  0.64285714  0.57142857  0.64074074  1
  Ti  Ti10719  1  0.64285714  0.64285714  0.64074074  1
  Ti  Ti10720  1  0.64285714  0.71428571  0.64074074  1
  Ti  Ti10721  1  0.64285714  0.78571429  0.64074074  1
  Ti  Ti10722  1  0.64285714  0.85714286  0.64074074  1
  Ti  Ti10723  1  0.64285714  0.92857143  0.64074074  1
  Ti  Ti10724  1  0.71428571  0.00000000  0.64074074  1
  Ti  Ti10725  1  0.71428571  0.07142857  0.64074074  1
  Ti  Ti10726  1  0.71428571  0.14285714  0.64074074  1
  Ti  Ti10727  1  0.71428571  0.21428571  0.64074074  1
  Ti  Ti10728  1  0.71428571  0.28571429  0.64074074  1
  Ti  Ti10729  1  0.71428571  0.35714286  0.64074074  1
  Ti  Ti10730  1  0.71428571  0.42857143  0.64074074  1
  Ti  Ti10731  1  0.71428571  0.50000000  0.64074074  1
  Ti  Ti10732  1  0.71428571  0.57142857  0.64074074  1
  Ti  Ti10733  1  0.71428571  0.64285714  0.64074074  1
  Ti  Ti10734  1  0.71428571  0.71428571  0.64074074  1
  Ti  Ti10735  1  0.71428571  0.78571429  0.64074074  1
  Ti  Ti10736  1  0.71428571  0.85714286  0.64074074  1
  Ti  Ti10737  1  0.71428571  0.92857143  0.64074074  1
  Ti  Ti10738  1  0.78571429  0.00000000  0.64074074  1
  Ti  Ti10739  1  0.78571429  0.07142857  0.64074074  1
  Ti  Ti10740  1  0.78571429  0.14285714  0.64074074  1
  Ti  Ti10741  1  0.78571429  0.21428571  0.64074074  1
  Ti  Ti10742  1  0.78571429  0.28571429  0.64074074  1
  Ti  Ti10743  1  0.78571429  0.35714286  0.64074074  1
  Ti  Ti10744  1  0.78571429  0.42857143  0.64074074  1
  Ti  Ti10745  1  0.78571429  0.50000000  0.64074074  1
  Ti  Ti10746  1  0.78571429  0.57142857  0.64074074  1
  Ti  Ti10747  1  0.78571429  0.64285714  0.64074074  1
  Ti  Ti10748  1  0.78571429  0.71428571  0.64074074  1
  Ti  Ti10749  1  0.78571429  0.78571429  0.64074074  1
  Ti  Ti10750  1  0.78571429  0.85714286  0.64074074  1
  Ti  Ti10751  1  0.78571429  0.92857143  0.64074074  1
  Ti  Ti10752  1  0.85714286  0.00000000  0.64074074  1
  Ti  Ti10753  1  0.85714286  0.07142857  0.64074074  1
  Ti  Ti10754  1  0.85714286  0.14285714  0.64074074  1
  Ti  Ti10755  1  0.85714286  0.21428571  0.64074074  1
  Ti  Ti10756  1  0.85714286  0.28571429  0.64074074  1
  Ti  Ti10757  1  0.85714286  0.35714286  0.64074074  1
  Ti  Ti10758  1  0.85714286  0.42857143  0.64074074  1
  Ti  Ti10759  1  0.85714286  0.50000000  0.64074074  1
  Ti  Ti10760  1  0.85714286  0.57142857  0.64074074  1
  Ti  Ti10761  1  0.85714286  0.64285714  0.64074074  1
  Ti  Ti10762  1  0.85714286  0.71428571  0.64074074  1
  Ti  Ti10763  1  0.85714286  0.78571429  0.64074074  1
  Ti  Ti10764  1  0.85714286  0.85714286  0.64074074  1
  Ti  Ti10765  1  0.85714286  0.92857143  0.64074074  1
  Ti  Ti10766  1  0.92857143  0.00000000  0.64074074  1
  Ti  Ti10767  1  0.92857143  0.07142857  0.64074074  1
  Ti  Ti10768  1  0.92857143  0.14285714  0.64074074  1
  Ti  Ti10769  1  0.92857143  0.21428571  0.64074074  1
  Ti  Ti10770  1  0.92857143  0.28571429  0.64074074  1
  Ti  Ti10771  1  0.92857143  0.35714286  0.64074074  1
  Ti  Ti10772  1  0.92857143  0.42857143  0.64074074  1
  Ti  Ti10773  1  0.92857143  0.50000000  0.64074074  1
  Ti  Ti10774  1  0.92857143  0.57142857  0.64074074  1
  Ti  Ti10775  1  0.92857143  0.64285714  0.64074074  1
  Ti  Ti10776  1  0.92857143  0.71428571  0.64074074  1
  Ti  Ti10777  1  0.92857143  0.78571429  0.64074074  1
  Ti  Ti10778  1  0.92857143  0.85714286  0.64074074  1
  Ti  Ti10779  1  0.92857143  0.92857143  0.64074074  1
  Ti  Ti10780  1  0.02380950  0.04761907  0.62962963  1
  Ti  Ti10781  1  0.02380950  0.11904764  0.62962963  1
  Ti  Ti10782  1  0.02380950  0.19047621  0.62962963  1
  Ti  Ti10783  1  0.02380950  0.26190479  0.62962963  1
  Ti  Ti10784  1  0.02380950  0.33333336  0.62962963  1
  Ti  Ti10785  1  0.02380950  0.40476193  0.62962963  1
  Ti  Ti10786  1  0.02380950  0.47619050  0.62962963  1
  Ti  Ti10787  1  0.02380950  0.54761907  0.62962963  1
  Ti  Ti10788  1  0.02380950  0.61904764  0.62962963  1
  Ti  Ti10789  1  0.02380950  0.69047621  0.62962963  1
  Ti  Ti10790  1  0.02380950  0.76190479  0.62962963  1
  Ti  Ti10791  1  0.02380950  0.83333336  0.62962963  1
  Ti  Ti10792  1  0.02380950  0.90476193  0.62962963  1
  Ti  Ti10793  1  0.02380950  0.97619050  0.62962963  1
  Ti  Ti10794  1  0.09523807  0.04761907  0.62962963  1
  Ti  Ti10795  1  0.09523807  0.11904764  0.62962963  1
  Ti  Ti10796  1  0.09523807  0.19047621  0.62962963  1
  Ti  Ti10797  1  0.09523807  0.26190479  0.62962963  1
  Ti  Ti10798  1  0.09523807  0.33333336  0.62962963  1
  Ti  Ti10799  1  0.09523807  0.40476193  0.62962963  1
  Ti  Ti10800  1  0.09523807  0.47619050  0.62962963  1
  Ti  Ti10801  1  0.09523807  0.54761907  0.62962963  1
  Ti  Ti10802  1  0.09523807  0.61904764  0.62962963  1
  Ti  Ti10803  1  0.09523807  0.69047621  0.62962963  1
  Ti  Ti10804  1  0.09523807  0.76190479  0.62962963  1
  Ti  Ti10805  1  0.09523807  0.83333336  0.62962963  1
  Ti  Ti10806  1  0.09523807  0.90476193  0.62962963  1
  Ti  Ti10807  1  0.09523807  0.97619050  0.62962963  1
  Ti  Ti10808  1  0.16666664  0.04761907  0.62962963  1
  Ti  Ti10809  1  0.16666664  0.11904764  0.62962963  1
  Ti  Ti10810  1  0.16666664  0.19047621  0.62962963  1
  Ti  Ti10811  1  0.16666664  0.26190479  0.62962963  1
  Ti  Ti10812  1  0.16666664  0.33333336  0.62962963  1
  Ti  Ti10813  1  0.16666664  0.40476193  0.62962963  1
  Ti  Ti10814  1  0.16666664  0.47619050  0.62962963  1
  Ti  Ti10815  1  0.16666664  0.54761907  0.62962963  1
  Ti  Ti10816  1  0.16666664  0.61904764  0.62962963  1
  Ti  Ti10817  1  0.16666664  0.69047621  0.62962963  1
  Ti  Ti10818  1  0.16666664  0.76190479  0.62962963  1
  Ti  Ti10819  1  0.16666664  0.83333336  0.62962963  1
  Ti  Ti10820  1  0.16666664  0.90476193  0.62962963  1
  Ti  Ti10821  1  0.16666664  0.97619050  0.62962963  1
  Ti  Ti10822  1  0.23809521  0.04761907  0.62962963  1
  Ti  Ti10823  1  0.23809521  0.11904764  0.62962963  1
  Ti  Ti10824  1  0.23809521  0.19047621  0.62962963  1
  Ti  Ti10825  1  0.23809521  0.26190479  0.62962963  1
  Ti  Ti10826  1  0.23809521  0.33333336  0.62962963  1
  Ti  Ti10827  1  0.23809521  0.40476193  0.62962963  1
  Ti  Ti10828  1  0.23809521  0.47619050  0.62962963  1
  Ti  Ti10829  1  0.23809521  0.54761907  0.62962963  1
  Ti  Ti10830  1  0.23809521  0.61904764  0.62962963  1
  Ti  Ti10831  1  0.23809521  0.69047621  0.62962963  1
  Ti  Ti10832  1  0.23809521  0.76190479  0.62962963  1
  Ti  Ti10833  1  0.23809521  0.83333336  0.62962963  1
  Ti  Ti10834  1  0.23809521  0.90476193  0.62962963  1
  Ti  Ti10835  1  0.23809521  0.97619050  0.62962963  1
  Ti  Ti10836  1  0.30952379  0.04761907  0.62962963  1
  Ti  Ti10837  1  0.30952379  0.11904764  0.62962963  1
  Ti  Ti10838  1  0.30952379  0.19047621  0.62962963  1
  Ti  Ti10839  1  0.30952379  0.26190479  0.62962963  1
  Ti  Ti10840  1  0.30952379  0.33333336  0.62962963  1
  Ti  Ti10841  1  0.30952379  0.40476193  0.62962963  1
  Ti  Ti10842  1  0.30952379  0.47619050  0.62962963  1
  Ti  Ti10843  1  0.30952379  0.54761907  0.62962963  1
  Ti  Ti10844  1  0.30952379  0.61904764  0.62962963  1
  Ti  Ti10845  1  0.30952379  0.69047621  0.62962963  1
  Ti  Ti10846  1  0.30952379  0.76190479  0.62962963  1
  Ti  Ti10847  1  0.30952379  0.83333336  0.62962963  1
  Ti  Ti10848  1  0.30952379  0.90476193  0.62962963  1
  Ti  Ti10849  1  0.30952379  0.97619050  0.62962963  1
  Ti  Ti10850  1  0.38095236  0.04761907  0.62962963  1
  Ti  Ti10851  1  0.38095236  0.11904764  0.62962963  1
  Ti  Ti10852  1  0.38095236  0.19047621  0.62962963  1
  Ti  Ti10853  1  0.38095236  0.26190479  0.62962963  1
  Ti  Ti10854  1  0.38095236  0.33333336  0.62962963  1
  Ti  Ti10855  1  0.38095236  0.40476193  0.62962963  1
  Ti  Ti10856  1  0.38095236  0.47619050  0.62962963  1
  Ti  Ti10857  1  0.38095236  0.54761907  0.62962963  1
  Ti  Ti10858  1  0.38095236  0.61904764  0.62962963  1
  Ti  Ti10859  1  0.38095236  0.69047621  0.62962963  1
  Ti  Ti10860  1  0.38095236  0.76190479  0.62962963  1
  Ti  Ti10861  1  0.38095236  0.83333336  0.62962963  1
  Ti  Ti10862  1  0.38095236  0.90476193  0.62962963  1
  Ti  Ti10863  1  0.38095236  0.97619050  0.62962963  1
  Ti  Ti10864  1  0.45238093  0.04761907  0.62962963  1
  Ti  Ti10865  1  0.45238093  0.11904764  0.62962963  1
  Ti  Ti10866  1  0.45238093  0.19047621  0.62962963  1
  Ti  Ti10867  1  0.45238093  0.26190479  0.62962963  1
  Ti  Ti10868  1  0.45238093  0.33333336  0.62962963  1
  Ti  Ti10869  1  0.45238093  0.40476193  0.62962963  1
  Ti  Ti10870  1  0.45238093  0.47619050  0.62962963  1
  Ti  Ti10871  1  0.45238093  0.54761907  0.62962963  1
  Ti  Ti10872  1  0.45238093  0.61904764  0.62962963  1
  Ti  Ti10873  1  0.45238093  0.69047621  0.62962963  1
  Ti  Ti10874  1  0.45238093  0.76190479  0.62962963  1
  Ti  Ti10875  1  0.45238093  0.83333336  0.62962963  1
  Ti  Ti10876  1  0.45238093  0.90476193  0.62962963  1
  Ti  Ti10877  1  0.45238093  0.97619050  0.62962963  1
  Ti  Ti10878  1  0.52380950  0.04761907  0.62962963  1
  Ti  Ti10879  1  0.52380950  0.11904764  0.62962963  1
  Ti  Ti10880  1  0.52380950  0.19047621  0.62962963  1
  Ti  Ti10881  1  0.52380950  0.26190479  0.62962963  1
  Ti  Ti10882  1  0.52380950  0.33333336  0.62962963  1
  Ti  Ti10883  1  0.52380950  0.40476193  0.62962963  1
  Ti  Ti10884  1  0.52380950  0.47619050  0.62962963  1
  Ti  Ti10885  1  0.52380950  0.54761907  0.62962963  1
  Ti  Ti10886  1  0.52380950  0.61904764  0.62962963  1
  Ti  Ti10887  1  0.52380950  0.69047621  0.62962963  1
  Ti  Ti10888  1  0.52380950  0.76190479  0.62962963  1
  Ti  Ti10889  1  0.52380950  0.83333336  0.62962963  1
  Ti  Ti10890  1  0.52380950  0.90476193  0.62962963  1
  Ti  Ti10891  1  0.52380950  0.97619050  0.62962963  1
  Ti  Ti10892  1  0.59523807  0.04761907  0.62962963  1
  Ti  Ti10893  1  0.59523807  0.11904764  0.62962963  1
  Ti  Ti10894  1  0.59523807  0.19047621  0.62962963  1
  Ti  Ti10895  1  0.59523807  0.26190479  0.62962963  1
  Ti  Ti10896  1  0.59523807  0.33333336  0.62962963  1
  Ti  Ti10897  1  0.59523807  0.40476193  0.62962963  1
  Ti  Ti10898  1  0.59523807  0.47619050  0.62962963  1
  Ti  Ti10899  1  0.59523807  0.54761907  0.62962963  1
  Ti  Ti10900  1  0.59523807  0.61904764  0.62962963  1
  Ti  Ti10901  1  0.59523807  0.69047621  0.62962963  1
  Ti  Ti10902  1  0.59523807  0.76190479  0.62962963  1
  Ti  Ti10903  1  0.59523807  0.83333336  0.62962963  1
  Ti  Ti10904  1  0.59523807  0.90476193  0.62962963  1
  Ti  Ti10905  1  0.59523807  0.97619050  0.62962963  1
  Ti  Ti10906  1  0.66666664  0.04761907  0.62962963  1
  Ti  Ti10907  1  0.66666664  0.11904764  0.62962963  1
  Ti  Ti10908  1  0.66666664  0.19047621  0.62962963  1
  Ti  Ti10909  1  0.66666664  0.26190479  0.62962963  1
  Ti  Ti10910  1  0.66666664  0.33333336  0.62962963  1
  Ti  Ti10911  1  0.66666664  0.40476193  0.62962963  1
  Ti  Ti10912  1  0.66666664  0.47619050  0.62962963  1
  Ti  Ti10913  1  0.66666664  0.54761907  0.62962963  1
  Ti  Ti10914  1  0.66666664  0.61904764  0.62962963  1
  Ti  Ti10915  1  0.66666664  0.69047621  0.62962963  1
  Ti  Ti10916  1  0.66666664  0.76190479  0.62962963  1
  Ti  Ti10917  1  0.66666664  0.83333336  0.62962963  1
  Ti  Ti10918  1  0.66666664  0.90476193  0.62962963  1
  Ti  Ti10919  1  0.66666664  0.97619050  0.62962963  1
  Ti  Ti10920  1  0.73809521  0.04761907  0.62962963  1
  Ti  Ti10921  1  0.73809521  0.11904764  0.62962963  1
  Ti  Ti10922  1  0.73809521  0.19047621  0.62962963  1
  Ti  Ti10923  1  0.73809521  0.26190479  0.62962963  1
  Ti  Ti10924  1  0.73809521  0.33333336  0.62962963  1
  Ti  Ti10925  1  0.73809521  0.40476193  0.62962963  1
  Ti  Ti10926  1  0.73809521  0.47619050  0.62962963  1
  Ti  Ti10927  1  0.73809521  0.54761907  0.62962963  1
  Ti  Ti10928  1  0.73809521  0.61904764  0.62962963  1
  Ti  Ti10929  1  0.73809521  0.69047621  0.62962963  1
  Ti  Ti10930  1  0.73809521  0.76190479  0.62962963  1
  Ti  Ti10931  1  0.73809521  0.83333336  0.62962963  1
  Ti  Ti10932  1  0.73809521  0.90476193  0.62962963  1
  Ti  Ti10933  1  0.73809521  0.97619050  0.62962963  1
  Ti  Ti10934  1  0.80952379  0.04761907  0.62962963  1
  Ti  Ti10935  1  0.80952379  0.11904764  0.62962963  1
  Ti  Ti10936  1  0.80952379  0.19047621  0.62962963  1
  Ti  Ti10937  1  0.80952379  0.26190479  0.62962963  1
  Ti  Ti10938  1  0.80952379  0.33333336  0.62962963  1
  Ti  Ti10939  1  0.80952379  0.40476193  0.62962963  1
  Ti  Ti10940  1  0.80952379  0.47619050  0.62962963  1
  Ti  Ti10941  1  0.80952379  0.54761907  0.62962963  1
  Ti  Ti10942  1  0.80952379  0.61904764  0.62962963  1
  Ti  Ti10943  1  0.80952379  0.69047621  0.62962963  1
  Ti  Ti10944  1  0.80952379  0.76190479  0.62962963  1
  Ti  Ti10945  1  0.80952379  0.83333336  0.62962963  1
  Ti  Ti10946  1  0.80952379  0.90476193  0.62962963  1
  Ti  Ti10947  1  0.80952379  0.97619050  0.62962963  1
  Ti  Ti10948  1  0.88095236  0.04761907  0.62962963  1
  Ti  Ti10949  1  0.88095236  0.11904764  0.62962963  1
  Ti  Ti10950  1  0.88095236  0.19047621  0.62962963  1
  Ti  Ti10951  1  0.88095236  0.26190479  0.62962963  1
  Ti  Ti10952  1  0.88095236  0.33333336  0.62962963  1
  Ti  Ti10953  1  0.88095236  0.40476193  0.62962963  1
  Ti  Ti10954  1  0.88095236  0.47619050  0.62962963  1
  Ti  Ti10955  1  0.88095236  0.54761907  0.62962963  1
  Ti  Ti10956  1  0.88095236  0.61904764  0.62962963  1
  Ti  Ti10957  1  0.88095236  0.69047621  0.62962963  1
  Ti  Ti10958  1  0.88095236  0.76190479  0.62962963  1
  Ti  Ti10959  1  0.88095236  0.83333336  0.62962963  1
  Ti  Ti10960  1  0.88095236  0.90476193  0.62962963  1
  Ti  Ti10961  1  0.88095236  0.97619050  0.62962963  1
  Ti  Ti10962  1  0.95238093  0.04761907  0.62962963  1
  Ti  Ti10963  1  0.95238093  0.11904764  0.62962963  1
  Ti  Ti10964  1  0.95238093  0.19047621  0.62962963  1
  Ti  Ti10965  1  0.95238093  0.26190479  0.62962963  1
  Ti  Ti10966  1  0.95238093  0.33333336  0.62962963  1
  Ti  Ti10967  1  0.95238093  0.40476193  0.62962963  1
  Ti  Ti10968  1  0.95238093  0.47619050  0.62962963  1
  Ti  Ti10969  1  0.95238093  0.54761907  0.62962963  1
  Ti  Ti10970  1  0.95238093  0.61904764  0.62962963  1
  Ti  Ti10971  1  0.95238093  0.69047621  0.62962963  1
  Ti  Ti10972  1  0.95238093  0.76190479  0.62962963  1
  Ti  Ti10973  1  0.95238093  0.83333336  0.62962963  1
  Ti  Ti10974  1  0.95238093  0.90476193  0.62962963  1
  Ti  Ti10975  1  0.95238093  0.97619050  0.62962963  1
  Ti  Ti10976  1  0.04761907  0.02380950  0.62962963  1
  Ti  Ti10977  1  0.04761907  0.09523807  0.62962963  1
  Ti  Ti10978  1  0.04761907  0.16666664  0.62962963  1
  Ti  Ti10979  1  0.04761907  0.23809521  0.62962963  1
  Ti  Ti10980  1  0.04761907  0.30952379  0.62962963  1
  Ti  Ti10981  1  0.04761907  0.38095236  0.62962963  1
  Ti  Ti10982  1  0.04761907  0.45238093  0.62962963  1
  Ti  Ti10983  1  0.04761907  0.52380950  0.62962963  1
  Ti  Ti10984  1  0.04761907  0.59523807  0.62962963  1
  Ti  Ti10985  1  0.04761907  0.66666664  0.62962963  1
  Ti  Ti10986  1  0.04761907  0.73809521  0.62962963  1
  Ti  Ti10987  1  0.04761907  0.80952379  0.62962963  1
  Ti  Ti10988  1  0.04761907  0.88095236  0.62962963  1
  Ti  Ti10989  1  0.04761907  0.95238093  0.62962963  1
  Ti  Ti10990  1  0.11904764  0.02380950  0.62962963  1
  Ti  Ti10991  1  0.11904764  0.09523807  0.62962963  1
  Ti  Ti10992  1  0.11904764  0.16666664  0.62962963  1
  Ti  Ti10993  1  0.11904764  0.23809521  0.62962963  1
  Ti  Ti10994  1  0.11904764  0.30952379  0.62962963  1
  Ti  Ti10995  1  0.11904764  0.38095236  0.62962963  1
  Ti  Ti10996  1  0.11904764  0.45238093  0.62962963  1
  Ti  Ti10997  1  0.11904764  0.52380950  0.62962963  1
  Ti  Ti10998  1  0.11904764  0.59523807  0.62962963  1
  Ti  Ti10999  1  0.11904764  0.66666664  0.62962963  1
  Ti  Ti11000  1  0.11904764  0.73809521  0.62962963  1
  Ti  Ti11001  1  0.11904764  0.80952379  0.62962963  1
  Ti  Ti11002  1  0.11904764  0.88095236  0.62962963  1
  Ti  Ti11003  1  0.11904764  0.95238093  0.62962963  1
  Ti  Ti11004  1  0.19047621  0.02380950  0.62962963  1
  Ti  Ti11005  1  0.19047621  0.09523807  0.62962963  1
  Ti  Ti11006  1  0.19047621  0.16666664  0.62962963  1
  Ti  Ti11007  1  0.19047621  0.23809521  0.62962963  1
  Ti  Ti11008  1  0.19047621  0.30952379  0.62962963  1
  Ti  Ti11009  1  0.19047621  0.38095236  0.62962963  1
  Ti  Ti11010  1  0.19047621  0.45238093  0.62962963  1
  Ti  Ti11011  1  0.19047621  0.52380950  0.62962963  1
  Ti  Ti11012  1  0.19047621  0.59523807  0.62962963  1
  Ti  Ti11013  1  0.19047621  0.66666664  0.62962963  1
  Ti  Ti11014  1  0.19047621  0.73809521  0.62962963  1
  Ti  Ti11015  1  0.19047621  0.80952379  0.62962963  1
  Ti  Ti11016  1  0.19047621  0.88095236  0.62962963  1
  Ti  Ti11017  1  0.19047621  0.95238093  0.62962963  1
  Ti  Ti11018  1  0.26190479  0.02380950  0.62962963  1
  Ti  Ti11019  1  0.26190479  0.09523807  0.62962963  1
  Ti  Ti11020  1  0.26190479  0.16666664  0.62962963  1
  Ti  Ti11021  1  0.26190479  0.23809521  0.62962963  1
  Ti  Ti11022  1  0.26190479  0.30952379  0.62962963  1
  Ti  Ti11023  1  0.26190479  0.38095236  0.62962963  1
  Ti  Ti11024  1  0.26190479  0.45238093  0.62962963  1
  Ti  Ti11025  1  0.26190479  0.52380950  0.62962963  1
  Ti  Ti11026  1  0.26190479  0.59523807  0.62962963  1
  Ti  Ti11027  1  0.26190479  0.66666664  0.62962963  1
  Ti  Ti11028  1  0.26190479  0.73809521  0.62962963  1
  Ti  Ti11029  1  0.26190479  0.80952379  0.62962963  1
  Ti  Ti11030  1  0.26190479  0.88095236  0.62962963  1
  Ti  Ti11031  1  0.26190479  0.95238093  0.62962963  1
  Ti  Ti11032  1  0.33333336  0.02380950  0.62962963  1
  Ti  Ti11033  1  0.33333336  0.09523807  0.62962963  1
  Ti  Ti11034  1  0.33333336  0.16666664  0.62962963  1
  Ti  Ti11035  1  0.33333336  0.23809521  0.62962963  1
  Ti  Ti11036  1  0.33333336  0.30952379  0.62962963  1
  Ti  Ti11037  1  0.33333336  0.38095236  0.62962963  1
  Ti  Ti11038  1  0.33333336  0.45238093  0.62962963  1
  Ti  Ti11039  1  0.33333336  0.52380950  0.62962963  1
  Ti  Ti11040  1  0.33333336  0.59523807  0.62962963  1
  Ti  Ti11041  1  0.33333336  0.66666664  0.62962963  1
  Ti  Ti11042  1  0.33333336  0.73809521  0.62962963  1
  Ti  Ti11043  1  0.33333336  0.80952379  0.62962963  1
  Ti  Ti11044  1  0.33333336  0.88095236  0.62962963  1
  Ti  Ti11045  1  0.33333336  0.95238093  0.62962963  1
  Ti  Ti11046  1  0.40476193  0.02380950  0.62962963  1
  Ti  Ti11047  1  0.40476193  0.09523807  0.62962963  1
  Ti  Ti11048  1  0.40476193  0.16666664  0.62962963  1
  Ti  Ti11049  1  0.40476193  0.23809521  0.62962963  1
  Ti  Ti11050  1  0.40476193  0.30952379  0.62962963  1
  Ti  Ti11051  1  0.40476193  0.38095236  0.62962963  1
  Ti  Ti11052  1  0.40476193  0.45238093  0.62962963  1
  Ti  Ti11053  1  0.40476193  0.52380950  0.62962963  1
  Ti  Ti11054  1  0.40476193  0.59523807  0.62962963  1
  Ti  Ti11055  1  0.40476193  0.66666664  0.62962963  1
  Ti  Ti11056  1  0.40476193  0.73809521  0.62962963  1
  Ti  Ti11057  1  0.40476193  0.80952379  0.62962963  1
  Ti  Ti11058  1  0.40476193  0.88095236  0.62962963  1
  Ti  Ti11059  1  0.40476193  0.95238093  0.62962963  1
  Ti  Ti11060  1  0.47619050  0.02380950  0.62962963  1
  Ti  Ti11061  1  0.47619050  0.09523807  0.62962963  1
  Ti  Ti11062  1  0.47619050  0.16666664  0.62962963  1
  Ti  Ti11063  1  0.47619050  0.23809521  0.62962963  1
  Ti  Ti11064  1  0.47619050  0.30952379  0.62962963  1
  Ti  Ti11065  1  0.47619050  0.38095236  0.62962963  1
  Ti  Ti11066  1  0.47619050  0.45238093  0.62962963  1
  Ti  Ti11067  1  0.47619050  0.52380950  0.62962963  1
  Ti  Ti11068  1  0.47619050  0.59523807  0.62962963  1
  Ti  Ti11069  1  0.47619050  0.66666664  0.62962963  1
  Ti  Ti11070  1  0.47619050  0.73809521  0.62962963  1
  Ti  Ti11071  1  0.47619050  0.80952379  0.62962963  1
  Ti  Ti11072  1  0.47619050  0.88095236  0.62962963  1
  Ti  Ti11073  1  0.47619050  0.95238093  0.62962963  1
  Ti  Ti11074  1  0.54761907  0.02380950  0.62962963  1
  Ti  Ti11075  1  0.54761907  0.09523807  0.62962963  1
  Ti  Ti11076  1  0.54761907  0.16666664  0.62962963  1
  Ti  Ti11077  1  0.54761907  0.23809521  0.62962963  1
  Ti  Ti11078  1  0.54761907  0.30952379  0.62962963  1
  Ti  Ti11079  1  0.54761907  0.38095236  0.62962963  1
  Ti  Ti11080  1  0.54761907  0.45238093  0.62962963  1
  Ti  Ti11081  1  0.54761907  0.52380950  0.62962963  1
  Ti  Ti11082  1  0.54761907  0.59523807  0.62962963  1
  Ti  Ti11083  1  0.54761907  0.66666664  0.62962963  1
  Ti  Ti11084  1  0.54761907  0.73809521  0.62962963  1
  Ti  Ti11085  1  0.54761907  0.80952379  0.62962963  1
  Ti  Ti11086  1  0.54761907  0.88095236  0.62962963  1
  Ti  Ti11087  1  0.54761907  0.95238093  0.62962963  1
  Ti  Ti11088  1  0.61904764  0.02380950  0.62962963  1
  Ti  Ti11089  1  0.61904764  0.09523807  0.62962963  1
  Ti  Ti11090  1  0.61904764  0.16666664  0.62962963  1
  Ti  Ti11091  1  0.61904764  0.23809521  0.62962963  1
  Ti  Ti11092  1  0.61904764  0.30952379  0.62962963  1
  Ti  Ti11093  1  0.61904764  0.38095236  0.62962963  1
  Ti  Ti11094  1  0.61904764  0.45238093  0.62962963  1
  Ti  Ti11095  1  0.61904764  0.52380950  0.62962963  1
  Ti  Ti11096  1  0.61904764  0.59523807  0.62962963  1
  Ti  Ti11097  1  0.61904764  0.66666664  0.62962963  1
  Ti  Ti11098  1  0.61904764  0.73809521  0.62962963  1
  Ti  Ti11099  1  0.61904764  0.80952379  0.62962963  1
  Ti  Ti11100  1  0.61904764  0.88095236  0.62962963  1
  Ti  Ti11101  1  0.61904764  0.95238093  0.62962963  1
  Ti  Ti11102  1  0.69047621  0.02380950  0.62962963  1
  Ti  Ti11103  1  0.69047621  0.09523807  0.62962963  1
  Ti  Ti11104  1  0.69047621  0.16666664  0.62962963  1
  Ti  Ti11105  1  0.69047621  0.23809521  0.62962963  1
  Ti  Ti11106  1  0.69047621  0.30952379  0.62962963  1
  Ti  Ti11107  1  0.69047621  0.38095236  0.62962963  1
  Ti  Ti11108  1  0.69047621  0.45238093  0.62962963  1
  Ti  Ti11109  1  0.69047621  0.52380950  0.62962963  1
  Ti  Ti11110  1  0.69047621  0.59523807  0.62962963  1
  Ti  Ti11111  1  0.69047621  0.66666664  0.62962963  1
  Ti  Ti11112  1  0.69047621  0.73809521  0.62962963  1
  Ti  Ti11113  1  0.69047621  0.80952379  0.62962963  1
  Ti  Ti11114  1  0.69047621  0.88095236  0.62962963  1
  Ti  Ti11115  1  0.69047621  0.95238093  0.62962963  1
  Ti  Ti11116  1  0.76190479  0.02380950  0.62962963  1
  Ti  Ti11117  1  0.76190479  0.09523807  0.62962963  1
  Ti  Ti11118  1  0.76190479  0.16666664  0.62962963  1
  Ti  Ti11119  1  0.76190479  0.23809521  0.62962963  1
  Ti  Ti11120  1  0.76190479  0.30952379  0.62962963  1
  Ti  Ti11121  1  0.76190479  0.38095236  0.62962963  1
  Ti  Ti11122  1  0.76190479  0.45238093  0.62962963  1
  Ti  Ti11123  1  0.76190479  0.52380950  0.62962963  1
  Ti  Ti11124  1  0.76190479  0.59523807  0.62962963  1
  Ti  Ti11125  1  0.76190479  0.66666664  0.62962963  1
  Ti  Ti11126  1  0.76190479  0.73809521  0.62962963  1
  Ti  Ti11127  1  0.76190479  0.80952379  0.62962963  1
  Ti  Ti11128  1  0.76190479  0.88095236  0.62962963  1
  Ti  Ti11129  1  0.76190479  0.95238093  0.62962963  1
  Ti  Ti11130  1  0.83333336  0.02380950  0.62962963  1
  Ti  Ti11131  1  0.83333336  0.09523807  0.62962963  1
  Ti  Ti11132  1  0.83333336  0.16666664  0.62962963  1
  Ti  Ti11133  1  0.83333336  0.23809521  0.62962963  1
  Ti  Ti11134  1  0.83333336  0.30952379  0.62962963  1
  Ti  Ti11135  1  0.83333336  0.38095236  0.62962963  1
  Ti  Ti11136  1  0.83333336  0.45238093  0.62962963  1
  Ti  Ti11137  1  0.83333336  0.52380950  0.62962963  1
  Ti  Ti11138  1  0.83333336  0.59523807  0.62962963  1
  Ti  Ti11139  1  0.83333336  0.66666664  0.62962963  1
  Ti  Ti11140  1  0.83333336  0.73809521  0.62962963  1
  Ti  Ti11141  1  0.83333336  0.80952379  0.62962963  1
  Ti  Ti11142  1  0.83333336  0.88095236  0.62962963  1
  Ti  Ti11143  1  0.83333336  0.95238093  0.62962963  1
  Ti  Ti11144  1  0.90476193  0.02380950  0.62962963  1
  Ti  Ti11145  1  0.90476193  0.09523807  0.62962963  1
  Ti  Ti11146  1  0.90476193  0.16666664  0.62962963  1
  Ti  Ti11147  1  0.90476193  0.23809521  0.62962963  1
  Ti  Ti11148  1  0.90476193  0.30952379  0.62962963  1
  Ti  Ti11149  1  0.90476193  0.38095236  0.62962963  1
  Ti  Ti11150  1  0.90476193  0.45238093  0.62962963  1
  Ti  Ti11151  1  0.90476193  0.52380950  0.62962963  1
  Ti  Ti11152  1  0.90476193  0.59523807  0.62962963  1
  Ti  Ti11153  1  0.90476193  0.66666664  0.62962963  1
  Ti  Ti11154  1  0.90476193  0.73809521  0.62962963  1
  Ti  Ti11155  1  0.90476193  0.80952379  0.62962963  1
  Ti  Ti11156  1  0.90476193  0.88095236  0.62962963  1
  Ti  Ti11157  1  0.90476193  0.95238093  0.62962963  1
  Ti  Ti11158  1  0.97619050  0.02380950  0.62962963  1
  Ti  Ti11159  1  0.97619050  0.09523807  0.62962963  1
  Ti  Ti11160  1  0.97619050  0.16666664  0.62962963  1
  Ti  Ti11161  1  0.97619050  0.23809521  0.62962963  1
  Ti  Ti11162  1  0.97619050  0.30952379  0.62962963  1
  Ti  Ti11163  1  0.97619050  0.38095236  0.62962963  1
  Ti  Ti11164  1  0.97619050  0.45238093  0.62962963  1
  Ti  Ti11165  1  0.97619050  0.52380950  0.62962963  1
  Ti  Ti11166  1  0.97619050  0.59523807  0.62962963  1
  Ti  Ti11167  1  0.97619050  0.66666664  0.62962963  1
  Ti  Ti11168  1  0.97619050  0.73809521  0.62962963  1
  Ti  Ti11169  1  0.97619050  0.80952379  0.62962963  1
  Ti  Ti11170  1  0.97619050  0.88095236  0.62962963  1
  Ti  Ti11171  1  0.97619050  0.95238093  0.62962963  1
  Ti  Ti11172  1  0.00000000  0.00000000  0.66296296  1
  Ti  Ti11173  1  0.00000000  0.07142857  0.66296296  1
  Ti  Ti11174  1  0.00000000  0.14285714  0.66296296  1
  Ti  Ti11175  1  0.00000000  0.21428571  0.66296296  1
  Ti  Ti11176  1  0.00000000  0.28571429  0.66296296  1
  Ti  Ti11177  1  0.00000000  0.35714286  0.66296296  1
  Ti  Ti11178  1  0.00000000  0.42857143  0.66296296  1
  Ti  Ti11179  1  0.00000000  0.50000000  0.66296296  1
  Ti  Ti11180  1  0.00000000  0.57142857  0.66296296  1
  Ti  Ti11181  1  0.00000000  0.64285714  0.66296296  1
  Ti  Ti11182  1  0.00000000  0.71428571  0.66296296  1
  Ti  Ti11183  1  1.00000000  0.78571429  0.66296296  1
  Ti  Ti11184  1  0.00000000  0.85714286  0.66296296  1
  Ti  Ti11185  1  0.00000000  0.92857143  0.66296296  1
  Ti  Ti11186  1  0.07142857  0.00000000  0.66296296  1
  Ti  Ti11187  1  0.07142857  0.07142857  0.66296296  1
  Ti  Ti11188  1  0.07142857  0.14285714  0.66296296  1
  Ti  Ti11189  1  0.07142857  0.21428571  0.66296296  1
  Ti  Ti11190  1  0.07142857  0.28571429  0.66296296  1
  Ti  Ti11191  1  0.07142857  0.35714286  0.66296296  1
  Ti  Ti11192  1  0.07142857  0.42857143  0.66296296  1
  Ti  Ti11193  1  0.07142857  0.50000000  0.66296296  1
  Ti  Ti11194  1  0.07142857  0.57142857  0.66296296  1
  Ti  Ti11195  1  0.07142857  0.64285714  0.66296296  1
  Ti  Ti11196  1  0.07142857  0.71428571  0.66296296  1
  Ti  Ti11197  1  0.07142857  0.78571429  0.66296296  1
  Ti  Ti11198  1  0.07142857  0.85714286  0.66296296  1
  Ti  Ti11199  1  0.07142857  0.92857143  0.66296296  1
  Ti  Ti11200  1  0.14285714  0.00000000  0.66296296  1
  Ti  Ti11201  1  0.14285714  0.07142857  0.66296296  1
  Ti  Ti11202  1  0.14285714  0.14285714  0.66296296  1
  Ti  Ti11203  1  0.14285714  0.21428571  0.66296296  1
  Ti  Ti11204  1  0.14285714  0.28571429  0.66296296  1
  Ti  Ti11205  1  0.14285714  0.35714286  0.66296296  1
  Ti  Ti11206  1  0.14285714  0.42857143  0.66296296  1
  Ti  Ti11207  1  0.14285714  0.50000000  0.66296296  1
  Ti  Ti11208  1  0.14285714  0.57142857  0.66296296  1
  Ti  Ti11209  1  0.14285714  0.64285714  0.66296296  1
  Ti  Ti11210  1  0.14285714  0.71428571  0.66296296  1
  Ti  Ti11211  1  0.14285714  0.78571429  0.66296296  1
  Ti  Ti11212  1  0.14285714  0.85714286  0.66296296  1
  Ti  Ti11213  1  0.14285714  0.92857143  0.66296296  1
  Ti  Ti11214  1  0.21428571  0.00000000  0.66296296  1
  Ti  Ti11215  1  0.21428571  0.07142857  0.66296296  1
  Ti  Ti11216  1  0.21428571  0.14285714  0.66296296  1
  Ti  Ti11217  1  0.21428571  0.21428571  0.66296296  1
  Ti  Ti11218  1  0.21428571  0.28571429  0.66296296  1
  Ti  Ti11219  1  0.21428571  0.35714286  0.66296296  1
  Ti  Ti11220  1  0.21428571  0.42857143  0.66296296  1
  Ti  Ti11221  1  0.21428571  0.50000000  0.66296296  1
  Ti  Ti11222  1  0.21428571  0.57142857  0.66296296  1
  Ti  Ti11223  1  0.21428571  0.64285714  0.66296296  1
  Ti  Ti11224  1  0.21428571  0.71428571  0.66296296  1
  Ti  Ti11225  1  0.21428571  0.78571429  0.66296296  1
  Ti  Ti11226  1  0.21428571  0.85714286  0.66296296  1
  Ti  Ti11227  1  0.21428571  0.92857143  0.66296296  1
  Ti  Ti11228  1  0.28571429  0.00000000  0.66296296  1
  Ti  Ti11229  1  0.28571429  0.07142857  0.66296296  1
  Ti  Ti11230  1  0.28571429  0.14285714  0.66296296  1
  Ti  Ti11231  1  0.28571429  0.21428571  0.66296296  1
  Ti  Ti11232  1  0.28571429  0.28571429  0.66296296  1
  Ti  Ti11233  1  0.28571429  0.35714286  0.66296296  1
  Ti  Ti11234  1  0.28571429  0.42857143  0.66296296  1
  Ti  Ti11235  1  0.28571429  0.50000000  0.66296296  1
  Ti  Ti11236  1  0.28571429  0.57142857  0.66296296  1
  Ti  Ti11237  1  0.28571429  0.64285714  0.66296296  1
  Ti  Ti11238  1  0.28571429  0.71428571  0.66296296  1
  Ti  Ti11239  1  0.28571429  0.78571429  0.66296296  1
  Ti  Ti11240  1  0.28571429  0.85714286  0.66296296  1
  Ti  Ti11241  1  0.28571429  0.92857143  0.66296296  1
  Ti  Ti11242  1  0.35714286  0.00000000  0.66296296  1
  Ti  Ti11243  1  0.35714286  0.07142857  0.66296296  1
  Ti  Ti11244  1  0.35714286  0.14285714  0.66296296  1
  Ti  Ti11245  1  0.35714286  0.21428571  0.66296296  1
  Ti  Ti11246  1  0.35714286  0.28571429  0.66296296  1
  Ti  Ti11247  1  0.35714286  0.35714286  0.66296296  1
  Ti  Ti11248  1  0.35714286  0.42857143  0.66296296  1
  Ti  Ti11249  1  0.35714286  0.50000000  0.66296296  1
  Ti  Ti11250  1  0.35714286  0.57142857  0.66296296  1
  Ti  Ti11251  1  0.35714286  0.64285714  0.66296296  1
  Ti  Ti11252  1  0.35714286  0.71428571  0.66296296  1
  Ti  Ti11253  1  0.35714286  0.78571429  0.66296296  1
  Ti  Ti11254  1  0.35714286  0.85714286  0.66296296  1
  Ti  Ti11255  1  0.35714286  0.92857143  0.66296296  1
  Ti  Ti11256  1  0.42857143  0.00000000  0.66296296  1
  Ti  Ti11257  1  0.42857143  0.07142857  0.66296296  1
  Ti  Ti11258  1  0.42857143  0.14285714  0.66296296  1
  Ti  Ti11259  1  0.42857143  0.21428571  0.66296296  1
  Ti  Ti11260  1  0.42857143  0.28571429  0.66296296  1
  Ti  Ti11261  1  0.42857143  0.35714286  0.66296296  1
  Ti  Ti11262  1  0.42857143  0.42857143  0.66296296  1
  Ti  Ti11263  1  0.42857143  0.50000000  0.66296296  1
  Ti  Ti11264  1  0.42857143  0.57142857  0.66296296  1
  Ti  Ti11265  1  0.42857143  0.64285714  0.66296296  1
  Ti  Ti11266  1  0.42857143  0.71428571  0.66296296  1
  Ti  Ti11267  1  0.42857143  0.78571429  0.66296296  1
  Ti  Ti11268  1  0.42857143  0.85714286  0.66296296  1
  Ti  Ti11269  1  0.42857143  0.92857143  0.66296296  1
  Ti  Ti11270  1  0.50000000  0.00000000  0.66296296  1
  Ti  Ti11271  1  0.50000000  0.07142857  0.66296296  1
  Ti  Ti11272  1  0.50000000  0.14285714  0.66296296  1
  Ti  Ti11273  1  0.50000000  0.21428571  0.66296296  1
  Ti  Ti11274  1  0.50000000  0.28571429  0.66296296  1
  Ti  Ti11275  1  0.50000000  0.35714286  0.66296296  1
  Ti  Ti11276  1  0.50000000  0.42857143  0.66296296  1
  Ti  Ti11277  1  0.50000000  0.50000000  0.66296296  1
  Ti  Ti11278  1  0.50000000  0.57142857  0.66296296  1
  Ti  Ti11279  1  0.50000000  0.64285714  0.66296296  1
  Ti  Ti11280  1  0.50000000  0.71428571  0.66296296  1
  Ti  Ti11281  1  0.50000000  0.78571429  0.66296296  1
  Ti  Ti11282  1  0.50000000  0.85714286  0.66296296  1
  Ti  Ti11283  1  0.50000000  0.92857143  0.66296296  1
  Ti  Ti11284  1  0.57142857  0.00000000  0.66296296  1
  Ti  Ti11285  1  0.57142857  0.07142857  0.66296296  1
  Ti  Ti11286  1  0.57142857  0.14285714  0.66296296  1
  Ti  Ti11287  1  0.57142857  0.21428571  0.66296296  1
  Ti  Ti11288  1  0.57142857  0.28571429  0.66296296  1
  Ti  Ti11289  1  0.57142857  0.35714286  0.66296296  1
  Ti  Ti11290  1  0.57142857  0.42857143  0.66296296  1
  Ti  Ti11291  1  0.57142857  0.50000000  0.66296296  1
  Ti  Ti11292  1  0.57142857  0.57142857  0.66296296  1
  Ti  Ti11293  1  0.57142857  0.64285714  0.66296296  1
  Ti  Ti11294  1  0.57142857  0.71428571  0.66296296  1
  Ti  Ti11295  1  0.57142857  0.78571429  0.66296296  1
  Ti  Ti11296  1  0.57142857  0.85714286  0.66296296  1
  Ti  Ti11297  1  0.57142857  0.92857143  0.66296296  1
  Ti  Ti11298  1  0.64285714  0.00000000  0.66296296  1
  Ti  Ti11299  1  0.64285714  0.07142857  0.66296296  1
  Ti  Ti11300  1  0.64285714  0.14285714  0.66296296  1
  Ti  Ti11301  1  0.64285714  0.21428571  0.66296296  1
  Ti  Ti11302  1  0.64285714  0.28571429  0.66296296  1
  Ti  Ti11303  1  0.64285714  0.35714286  0.66296296  1
  Ti  Ti11304  1  0.64285714  0.42857143  0.66296296  1
  Ti  Ti11305  1  0.64285714  0.50000000  0.66296296  1
  Ti  Ti11306  1  0.64285714  0.57142857  0.66296296  1
  Ti  Ti11307  1  0.64285714  0.64285714  0.66296296  1
  Ti  Ti11308  1  0.64285714  0.71428571  0.66296296  1
  Ti  Ti11309  1  0.64285714  0.78571429  0.66296296  1
  Ti  Ti11310  1  0.64285714  0.85714286  0.66296296  1
  Ti  Ti11311  1  0.64285714  0.92857143  0.66296296  1
  Ti  Ti11312  1  0.71428571  0.00000000  0.66296296  1
  Ti  Ti11313  1  0.71428571  0.07142857  0.66296296  1
  Ti  Ti11314  1  0.71428571  0.14285714  0.66296296  1
  Ti  Ti11315  1  0.71428571  0.21428571  0.66296296  1
  Ti  Ti11316  1  0.71428571  0.28571429  0.66296296  1
  Ti  Ti11317  1  0.71428571  0.35714286  0.66296296  1
  Ti  Ti11318  1  0.71428571  0.42857143  0.66296296  1
  Ti  Ti11319  1  0.71428571  0.50000000  0.66296296  1
  Ti  Ti11320  1  0.71428571  0.57142857  0.66296296  1
  Ti  Ti11321  1  0.71428571  0.64285714  0.66296296  1
  Ti  Ti11322  1  0.71428571  0.71428571  0.66296296  1
  Ti  Ti11323  1  0.71428571  0.78571429  0.66296296  1
  Ti  Ti11324  1  0.71428571  0.85714286  0.66296296  1
  Ti  Ti11325  1  0.71428571  0.92857143  0.66296296  1
  Ti  Ti11326  1  0.78571429  0.00000000  0.66296296  1
  Ti  Ti11327  1  0.78571429  0.07142857  0.66296296  1
  Ti  Ti11328  1  0.78571429  0.14285714  0.66296296  1
  Ti  Ti11329  1  0.78571429  0.21428571  0.66296296  1
  Ti  Ti11330  1  0.78571429  0.28571429  0.66296296  1
  Ti  Ti11331  1  0.78571429  0.35714286  0.66296296  1
  Ti  Ti11332  1  0.78571429  0.42857143  0.66296296  1
  Ti  Ti11333  1  0.78571429  0.50000000  0.66296296  1
  Ti  Ti11334  1  0.78571429  0.57142857  0.66296296  1
  Ti  Ti11335  1  0.78571429  0.64285714  0.66296296  1
  Ti  Ti11336  1  0.78571429  0.71428571  0.66296296  1
  Ti  Ti11337  1  0.78571429  0.78571429  0.66296296  1
  Ti  Ti11338  1  0.78571429  0.85714286  0.66296296  1
  Ti  Ti11339  1  0.78571429  0.92857143  0.66296296  1
  Ti  Ti11340  1  0.85714286  0.00000000  0.66296296  1
  Ti  Ti11341  1  0.85714286  0.07142857  0.66296296  1
  Ti  Ti11342  1  0.85714286  0.14285714  0.66296296  1
  Ti  Ti11343  1  0.85714286  0.21428571  0.66296296  1
  Ti  Ti11344  1  0.85714286  0.28571429  0.66296296  1
  Ti  Ti11345  1  0.85714286  0.35714286  0.66296296  1
  Ti  Ti11346  1  0.85714286  0.42857143  0.66296296  1
  Ti  Ti11347  1  0.85714286  0.50000000  0.66296296  1
  Ti  Ti11348  1  0.85714286  0.57142857  0.66296296  1
  Ti  Ti11349  1  0.85714286  0.64285714  0.66296296  1
  Ti  Ti11350  1  0.85714286  0.71428571  0.66296296  1
  Ti  Ti11351  1  0.85714286  0.78571429  0.66296296  1
  Ti  Ti11352  1  0.85714286  0.85714286  0.66296296  1
  Ti  Ti11353  1  0.85714286  0.92857143  0.66296296  1
  Ti  Ti11354  1  0.92857143  0.00000000  0.66296296  1
  Ti  Ti11355  1  0.92857143  0.07142857  0.66296296  1
  Ti  Ti11356  1  0.92857143  0.14285714  0.66296296  1
  Ti  Ti11357  1  0.92857143  0.21428571  0.66296296  1
  Ti  Ti11358  1  0.92857143  0.28571429  0.66296296  1
  Ti  Ti11359  1  0.92857143  0.35714286  0.66296296  1
  Ti  Ti11360  1  0.92857143  0.42857143  0.66296296  1
  Ti  Ti11361  1  0.92857143  0.50000000  0.66296296  1
  Ti  Ti11362  1  0.92857143  0.57142857  0.66296296  1
  Ti  Ti11363  1  0.92857143  0.64285714  0.66296296  1
  Ti  Ti11364  1  0.92857143  0.71428571  0.66296296  1
  Ti  Ti11365  1  0.92857143  0.78571429  0.66296296  1
  Ti  Ti11366  1  0.92857143  0.85714286  0.66296296  1
  Ti  Ti11367  1  0.92857143  0.92857143  0.66296296  1
  Ti  Ti11368  1  0.02380950  0.04761907  0.65185185  1
  Ti  Ti11369  1  0.02380950  0.11904764  0.65185185  1
  Ti  Ti11370  1  0.02380950  0.19047621  0.65185185  1
  Ti  Ti11371  1  0.02380950  0.26190479  0.65185185  1
  Ti  Ti11372  1  0.02380950  0.33333336  0.65185185  1
  Ti  Ti11373  1  0.02380950  0.40476193  0.65185185  1
  Ti  Ti11374  1  0.02380950  0.47619050  0.65185185  1
  Ti  Ti11375  1  0.02380950  0.54761907  0.65185185  1
  Ti  Ti11376  1  0.02380950  0.61904764  0.65185185  1
  Ti  Ti11377  1  0.02380950  0.69047621  0.65185185  1
  Ti  Ti11378  1  0.02380950  0.76190479  0.65185185  1
  Ti  Ti11379  1  0.02380950  0.83333336  0.65185185  1
  Ti  Ti11380  1  0.02380950  0.90476193  0.65185185  1
  Ti  Ti11381  1  0.02380950  0.97619050  0.65185185  1
  Ti  Ti11382  1  0.09523807  0.04761907  0.65185185  1
  Ti  Ti11383  1  0.09523807  0.11904764  0.65185185  1
  Ti  Ti11384  1  0.09523807  0.19047621  0.65185185  1
  Ti  Ti11385  1  0.09523807  0.26190479  0.65185185  1
  Ti  Ti11386  1  0.09523807  0.33333336  0.65185185  1
  Ti  Ti11387  1  0.09523807  0.40476193  0.65185185  1
  Ti  Ti11388  1  0.09523807  0.47619050  0.65185185  1
  Ti  Ti11389  1  0.09523807  0.54761907  0.65185185  1
  Ti  Ti11390  1  0.09523807  0.61904764  0.65185185  1
  Ti  Ti11391  1  0.09523807  0.69047621  0.65185185  1
  Ti  Ti11392  1  0.09523807  0.76190479  0.65185185  1
  Ti  Ti11393  1  0.09523807  0.83333336  0.65185185  1
  Ti  Ti11394  1  0.09523807  0.90476193  0.65185185  1
  Ti  Ti11395  1  0.09523807  0.97619050  0.65185185  1
  Ti  Ti11396  1  0.16666664  0.04761907  0.65185185  1
  Ti  Ti11397  1  0.16666664  0.11904764  0.65185185  1
  Ti  Ti11398  1  0.16666664  0.19047621  0.65185185  1
  Ti  Ti11399  1  0.16666664  0.26190479  0.65185185  1
  Ti  Ti11400  1  0.16666664  0.33333336  0.65185185  1
  Ti  Ti11401  1  0.16666664  0.40476193  0.65185185  1
  Ti  Ti11402  1  0.16666664  0.47619050  0.65185185  1
  Ti  Ti11403  1  0.16666664  0.54761907  0.65185185  1
  Ti  Ti11404  1  0.16666664  0.61904764  0.65185185  1
  Ti  Ti11405  1  0.16666664  0.69047621  0.65185185  1
  Ti  Ti11406  1  0.16666664  0.76190479  0.65185185  1
  Ti  Ti11407  1  0.16666664  0.83333336  0.65185185  1
  Ti  Ti11408  1  0.16666664  0.90476193  0.65185185  1
  Ti  Ti11409  1  0.16666664  0.97619050  0.65185185  1
  Ti  Ti11410  1  0.23809521  0.04761907  0.65185185  1
  Ti  Ti11411  1  0.23809521  0.11904764  0.65185185  1
  Ti  Ti11412  1  0.23809521  0.19047621  0.65185185  1
  Ti  Ti11413  1  0.23809521  0.26190479  0.65185185  1
  Ti  Ti11414  1  0.23809521  0.33333336  0.65185185  1
  Ti  Ti11415  1  0.23809521  0.40476193  0.65185185  1
  Ti  Ti11416  1  0.23809521  0.47619050  0.65185185  1
  Ti  Ti11417  1  0.23809521  0.54761907  0.65185185  1
  Ti  Ti11418  1  0.23809521  0.61904764  0.65185185  1
  Ti  Ti11419  1  0.23809521  0.69047621  0.65185185  1
  Ti  Ti11420  1  0.23809521  0.76190479  0.65185185  1
  Ti  Ti11421  1  0.23809521  0.83333336  0.65185185  1
  Ti  Ti11422  1  0.23809521  0.90476193  0.65185185  1
  Ti  Ti11423  1  0.23809521  0.97619050  0.65185185  1
  Ti  Ti11424  1  0.30952379  0.04761907  0.65185185  1
  Ti  Ti11425  1  0.30952379  0.11904764  0.65185185  1
  Ti  Ti11426  1  0.30952379  0.19047621  0.65185185  1
  Ti  Ti11427  1  0.30952379  0.26190479  0.65185185  1
  Ti  Ti11428  1  0.30952379  0.33333336  0.65185185  1
  Ti  Ti11429  1  0.30952379  0.40476193  0.65185185  1
  Ti  Ti11430  1  0.30952379  0.47619050  0.65185185  1
  Ti  Ti11431  1  0.30952379  0.54761907  0.65185185  1
  Ti  Ti11432  1  0.30952379  0.61904764  0.65185185  1
  Ti  Ti11433  1  0.30952379  0.69047621  0.65185185  1
  Ti  Ti11434  1  0.30952379  0.76190479  0.65185185  1
  Ti  Ti11435  1  0.30952379  0.83333336  0.65185185  1
  Ti  Ti11436  1  0.30952379  0.90476193  0.65185185  1
  Ti  Ti11437  1  0.30952379  0.97619050  0.65185185  1
  Ti  Ti11438  1  0.38095236  0.04761907  0.65185185  1
  Ti  Ti11439  1  0.38095236  0.11904764  0.65185185  1
  Ti  Ti11440  1  0.38095236  0.19047621  0.65185185  1
  Ti  Ti11441  1  0.38095236  0.26190479  0.65185185  1
  Ti  Ti11442  1  0.38095236  0.33333336  0.65185185  1
  Ti  Ti11443  1  0.38095236  0.40476193  0.65185185  1
  Ti  Ti11444  1  0.38095236  0.47619050  0.65185185  1
  Ti  Ti11445  1  0.38095236  0.54761907  0.65185185  1
  Ti  Ti11446  1  0.38095236  0.61904764  0.65185185  1
  Ti  Ti11447  1  0.38095236  0.69047621  0.65185185  1
  Ti  Ti11448  1  0.38095236  0.76190479  0.65185185  1
  Ti  Ti11449  1  0.38095236  0.83333336  0.65185185  1
  Ti  Ti11450  1  0.38095236  0.90476193  0.65185185  1
  Ti  Ti11451  1  0.38095236  0.97619050  0.65185185  1
  Ti  Ti11452  1  0.45238093  0.04761907  0.65185185  1
  Ti  Ti11453  1  0.45238093  0.11904764  0.65185185  1
  Ti  Ti11454  1  0.45238093  0.19047621  0.65185185  1
  Ti  Ti11455  1  0.45238093  0.26190479  0.65185185  1
  Ti  Ti11456  1  0.45238093  0.33333336  0.65185185  1
  Ti  Ti11457  1  0.45238093  0.40476193  0.65185185  1
  Ti  Ti11458  1  0.45238093  0.47619050  0.65185185  1
  Ti  Ti11459  1  0.45238093  0.54761907  0.65185185  1
  Ti  Ti11460  1  0.45238093  0.61904764  0.65185185  1
  Ti  Ti11461  1  0.45238093  0.69047621  0.65185185  1
  Ti  Ti11462  1  0.45238093  0.76190479  0.65185185  1
  Ti  Ti11463  1  0.45238093  0.83333336  0.65185185  1
  Ti  Ti11464  1  0.45238093  0.90476193  0.65185185  1
  Ti  Ti11465  1  0.45238093  0.97619050  0.65185185  1
  Ti  Ti11466  1  0.52380950  0.04761907  0.65185185  1
  Ti  Ti11467  1  0.52380950  0.11904764  0.65185185  1
  Ti  Ti11468  1  0.52380950  0.19047621  0.65185185  1
  Ti  Ti11469  1  0.52380950  0.26190479  0.65185185  1
  Ti  Ti11470  1  0.52380950  0.33333336  0.65185185  1
  Ti  Ti11471  1  0.52380950  0.40476193  0.65185185  1
  Ti  Ti11472  1  0.52380950  0.47619050  0.65185185  1
  Ti  Ti11473  1  0.52380950  0.54761907  0.65185185  1
  Ti  Ti11474  1  0.52380950  0.61904764  0.65185185  1
  Ti  Ti11475  1  0.52380950  0.69047621  0.65185185  1
  Ti  Ti11476  1  0.52380950  0.76190479  0.65185185  1
  Ti  Ti11477  1  0.52380950  0.83333336  0.65185185  1
  Ti  Ti11478  1  0.52380950  0.90476193  0.65185185  1
  Ti  Ti11479  1  0.52380950  0.97619050  0.65185185  1
  Ti  Ti11480  1  0.59523807  0.04761907  0.65185185  1
  Ti  Ti11481  1  0.59523807  0.11904764  0.65185185  1
  Ti  Ti11482  1  0.59523807  0.19047621  0.65185185  1
  Ti  Ti11483  1  0.59523807  0.26190479  0.65185185  1
  Ti  Ti11484  1  0.59523807  0.33333336  0.65185185  1
  Ti  Ti11485  1  0.59523807  0.40476193  0.65185185  1
  Ti  Ti11486  1  0.59523807  0.47619050  0.65185185  1
  Ti  Ti11487  1  0.59523807  0.54761907  0.65185185  1
  Ti  Ti11488  1  0.59523807  0.61904764  0.65185185  1
  Ti  Ti11489  1  0.59523807  0.69047621  0.65185185  1
  Ti  Ti11490  1  0.59523807  0.76190479  0.65185185  1
  Ti  Ti11491  1  0.59523807  0.83333336  0.65185185  1
  Ti  Ti11492  1  0.59523807  0.90476193  0.65185185  1
  Ti  Ti11493  1  0.59523807  0.97619050  0.65185185  1
  Ti  Ti11494  1  0.66666664  0.04761907  0.65185185  1
  Ti  Ti11495  1  0.66666664  0.11904764  0.65185185  1
  Ti  Ti11496  1  0.66666664  0.19047621  0.65185185  1
  Ti  Ti11497  1  0.66666664  0.26190479  0.65185185  1
  Ti  Ti11498  1  0.66666664  0.33333336  0.65185185  1
  Ti  Ti11499  1  0.66666664  0.40476193  0.65185185  1
  Ti  Ti11500  1  0.66666664  0.47619050  0.65185185  1
  Ti  Ti11501  1  0.66666664  0.54761907  0.65185185  1
  Ti  Ti11502  1  0.66666664  0.61904764  0.65185185  1
  Ti  Ti11503  1  0.66666664  0.69047621  0.65185185  1
  Ti  Ti11504  1  0.66666664  0.76190479  0.65185185  1
  Ti  Ti11505  1  0.66666664  0.83333336  0.65185185  1
  Ti  Ti11506  1  0.66666664  0.90476193  0.65185185  1
  Ti  Ti11507  1  0.66666664  0.97619050  0.65185185  1
  Ti  Ti11508  1  0.73809521  0.04761907  0.65185185  1
  Ti  Ti11509  1  0.73809521  0.11904764  0.65185185  1
  Ti  Ti11510  1  0.73809521  0.19047621  0.65185185  1
  Ti  Ti11511  1  0.73809521  0.26190479  0.65185185  1
  Ti  Ti11512  1  0.73809521  0.33333336  0.65185185  1
  Ti  Ti11513  1  0.73809521  0.40476193  0.65185185  1
  Ti  Ti11514  1  0.73809521  0.47619050  0.65185185  1
  Ti  Ti11515  1  0.73809521  0.54761907  0.65185185  1
  Ti  Ti11516  1  0.73809521  0.61904764  0.65185185  1
  Ti  Ti11517  1  0.73809521  0.69047621  0.65185185  1
  Ti  Ti11518  1  0.73809521  0.76190479  0.65185185  1
  Ti  Ti11519  1  0.73809521  0.83333336  0.65185185  1
  Ti  Ti11520  1  0.73809521  0.90476193  0.65185185  1
  Ti  Ti11521  1  0.73809521  0.97619050  0.65185185  1
  Ti  Ti11522  1  0.80952379  0.04761907  0.65185185  1
  Ti  Ti11523  1  0.80952379  0.11904764  0.65185185  1
  Ti  Ti11524  1  0.80952379  0.19047621  0.65185185  1
  Ti  Ti11525  1  0.80952379  0.26190479  0.65185185  1
  Ti  Ti11526  1  0.80952379  0.33333336  0.65185185  1
  Ti  Ti11527  1  0.80952379  0.40476193  0.65185185  1
  Ti  Ti11528  1  0.80952379  0.47619050  0.65185185  1
  Ti  Ti11529  1  0.80952379  0.54761907  0.65185185  1
  Ti  Ti11530  1  0.80952379  0.61904764  0.65185185  1
  Ti  Ti11531  1  0.80952379  0.69047621  0.65185185  1
  Ti  Ti11532  1  0.80952379  0.76190479  0.65185185  1
  Ti  Ti11533  1  0.80952379  0.83333336  0.65185185  1
  Ti  Ti11534  1  0.80952379  0.90476193  0.65185185  1
  Ti  Ti11535  1  0.80952379  0.97619050  0.65185185  1
  Ti  Ti11536  1  0.88095236  0.04761907  0.65185185  1
  Ti  Ti11537  1  0.88095236  0.11904764  0.65185185  1
  Ti  Ti11538  1  0.88095236  0.19047621  0.65185185  1
  Ti  Ti11539  1  0.88095236  0.26190479  0.65185185  1
  Ti  Ti11540  1  0.88095236  0.33333336  0.65185185  1
  Ti  Ti11541  1  0.88095236  0.40476193  0.65185185  1
  Ti  Ti11542  1  0.88095236  0.47619050  0.65185185  1
  Ti  Ti11543  1  0.88095236  0.54761907  0.65185185  1
  Ti  Ti11544  1  0.88095236  0.61904764  0.65185185  1
  Ti  Ti11545  1  0.88095236  0.69047621  0.65185185  1
  Ti  Ti11546  1  0.88095236  0.76190479  0.65185185  1
  Ti  Ti11547  1  0.88095236  0.83333336  0.65185185  1
  Ti  Ti11548  1  0.88095236  0.90476193  0.65185185  1
  Ti  Ti11549  1  0.88095236  0.97619050  0.65185185  1
  Ti  Ti11550  1  0.95238093  0.04761907  0.65185185  1
  Ti  Ti11551  1  0.95238093  0.11904764  0.65185185  1
  Ti  Ti11552  1  0.95238093  0.19047621  0.65185185  1
  Ti  Ti11553  1  0.95238093  0.26190479  0.65185185  1
  Ti  Ti11554  1  0.95238093  0.33333336  0.65185185  1
  Ti  Ti11555  1  0.95238093  0.40476193  0.65185185  1
  Ti  Ti11556  1  0.95238093  0.47619050  0.65185185  1
  Ti  Ti11557  1  0.95238093  0.54761907  0.65185185  1
  Ti  Ti11558  1  0.95238093  0.61904764  0.65185185  1
  Ti  Ti11559  1  0.95238093  0.69047621  0.65185185  1
  Ti  Ti11560  1  0.95238093  0.76190479  0.65185185  1
  Ti  Ti11561  1  0.95238093  0.83333336  0.65185185  1
  Ti  Ti11562  1  0.95238093  0.90476193  0.65185185  1
  Ti  Ti11563  1  0.95238093  0.97619050  0.65185185  1
  Ti  Ti11564  1  0.04761907  0.02380950  0.65185185  1
  Ti  Ti11565  1  0.04761907  0.09523807  0.65185185  1
  Ti  Ti11566  1  0.04761907  0.16666664  0.65185185  1
  Ti  Ti11567  1  0.04761907  0.23809521  0.65185185  1
  Ti  Ti11568  1  0.04761907  0.30952379  0.65185185  1
  Ti  Ti11569  1  0.04761907  0.38095236  0.65185185  1
  Ti  Ti11570  1  0.04761907  0.45238093  0.65185185  1
  Ti  Ti11571  1  0.04761907  0.52380950  0.65185185  1
  Ti  Ti11572  1  0.04761907  0.59523807  0.65185185  1
  Ti  Ti11573  1  0.04761907  0.66666664  0.65185185  1
  Ti  Ti11574  1  0.04761907  0.73809521  0.65185185  1
  Ti  Ti11575  1  0.04761907  0.80952379  0.65185185  1
  Ti  Ti11576  1  0.04761907  0.88095236  0.65185185  1
  Ti  Ti11577  1  0.04761907  0.95238093  0.65185185  1
  Ti  Ti11578  1  0.11904764  0.02380950  0.65185185  1
  Ti  Ti11579  1  0.11904764  0.09523807  0.65185185  1
  Ti  Ti11580  1  0.11904764  0.16666664  0.65185185  1
  Ti  Ti11581  1  0.11904764  0.23809521  0.65185185  1
  Ti  Ti11582  1  0.11904764  0.30952379  0.65185185  1
  Ti  Ti11583  1  0.11904764  0.38095236  0.65185185  1
  Ti  Ti11584  1  0.11904764  0.45238093  0.65185185  1
  Ti  Ti11585  1  0.11904764  0.52380950  0.65185185  1
  Ti  Ti11586  1  0.11904764  0.59523807  0.65185185  1
  Ti  Ti11587  1  0.11904764  0.66666664  0.65185185  1
  Ti  Ti11588  1  0.11904764  0.73809521  0.65185185  1
  Ti  Ti11589  1  0.11904764  0.80952379  0.65185185  1
  Ti  Ti11590  1  0.11904764  0.88095236  0.65185185  1
  Ti  Ti11591  1  0.11904764  0.95238093  0.65185185  1
  Ti  Ti11592  1  0.19047621  0.02380950  0.65185185  1
  Ti  Ti11593  1  0.19047621  0.09523807  0.65185185  1
  Ti  Ti11594  1  0.19047621  0.16666664  0.65185185  1
  Ti  Ti11595  1  0.19047621  0.23809521  0.65185185  1
  Ti  Ti11596  1  0.19047621  0.30952379  0.65185185  1
  Ti  Ti11597  1  0.19047621  0.38095236  0.65185185  1
  Ti  Ti11598  1  0.19047621  0.45238093  0.65185185  1
  Ti  Ti11599  1  0.19047621  0.52380950  0.65185185  1
  Ti  Ti11600  1  0.19047621  0.59523807  0.65185185  1
  Ti  Ti11601  1  0.19047621  0.66666664  0.65185185  1
  Ti  Ti11602  1  0.19047621  0.73809521  0.65185185  1
  Ti  Ti11603  1  0.19047621  0.80952379  0.65185185  1
  Ti  Ti11604  1  0.19047621  0.88095236  0.65185185  1
  Ti  Ti11605  1  0.19047621  0.95238093  0.65185185  1
  Ti  Ti11606  1  0.26190479  0.02380950  0.65185185  1
  Ti  Ti11607  1  0.26190479  0.09523807  0.65185185  1
  Ti  Ti11608  1  0.26190479  0.16666664  0.65185185  1
  Ti  Ti11609  1  0.26190479  0.23809521  0.65185185  1
  Ti  Ti11610  1  0.26190479  0.30952379  0.65185185  1
  Ti  Ti11611  1  0.26190479  0.38095236  0.65185185  1
  Ti  Ti11612  1  0.26190479  0.45238093  0.65185185  1
  Ti  Ti11613  1  0.26190479  0.52380950  0.65185185  1
  Ti  Ti11614  1  0.26190479  0.59523807  0.65185185  1
  Ti  Ti11615  1  0.26190479  0.66666664  0.65185185  1
  Ti  Ti11616  1  0.26190479  0.73809521  0.65185185  1
  Ti  Ti11617  1  0.26190479  0.80952379  0.65185185  1
  Ti  Ti11618  1  0.26190479  0.88095236  0.65185185  1
  Ti  Ti11619  1  0.26190479  0.95238093  0.65185185  1
  Ti  Ti11620  1  0.33333336  0.02380950  0.65185185  1
  Ti  Ti11621  1  0.33333336  0.09523807  0.65185185  1
  Ti  Ti11622  1  0.33333336  0.16666664  0.65185185  1
  Ti  Ti11623  1  0.33333336  0.23809521  0.65185185  1
  Ti  Ti11624  1  0.33333336  0.30952379  0.65185185  1
  Ti  Ti11625  1  0.33333336  0.38095236  0.65185185  1
  Ti  Ti11626  1  0.33333336  0.45238093  0.65185185  1
  Ti  Ti11627  1  0.33333336  0.52380950  0.65185185  1
  Ti  Ti11628  1  0.33333336  0.59523807  0.65185185  1
  Ti  Ti11629  1  0.33333336  0.66666664  0.65185185  1
  Ti  Ti11630  1  0.33333336  0.73809521  0.65185185  1
  Ti  Ti11631  1  0.33333336  0.80952379  0.65185185  1
  Ti  Ti11632  1  0.33333336  0.88095236  0.65185185  1
  Ti  Ti11633  1  0.33333336  0.95238093  0.65185185  1
  Ti  Ti11634  1  0.40476193  0.02380950  0.65185185  1
  Ti  Ti11635  1  0.40476193  0.09523807  0.65185185  1
  Ti  Ti11636  1  0.40476193  0.16666664  0.65185185  1
  Ti  Ti11637  1  0.40476193  0.23809521  0.65185185  1
  Ti  Ti11638  1  0.40476193  0.30952379  0.65185185  1
  Ti  Ti11639  1  0.40476193  0.38095236  0.65185185  1
  Ti  Ti11640  1  0.40476193  0.45238093  0.65185185  1
  Ti  Ti11641  1  0.40476193  0.52380950  0.65185185  1
  Ti  Ti11642  1  0.40476193  0.59523807  0.65185185  1
  Ti  Ti11643  1  0.40476193  0.66666664  0.65185185  1
  Ti  Ti11644  1  0.40476193  0.73809521  0.65185185  1
  Ti  Ti11645  1  0.40476193  0.80952379  0.65185185  1
  Ti  Ti11646  1  0.40476193  0.88095236  0.65185185  1
  Ti  Ti11647  1  0.40476193  0.95238093  0.65185185  1
  Ti  Ti11648  1  0.47619050  0.02380950  0.65185185  1
  Ti  Ti11649  1  0.47619050  0.09523807  0.65185185  1
  Ti  Ti11650  1  0.47619050  0.16666664  0.65185185  1
  Ti  Ti11651  1  0.47619050  0.23809521  0.65185185  1
  Ti  Ti11652  1  0.47619050  0.30952379  0.65185185  1
  Ti  Ti11653  1  0.47619050  0.38095236  0.65185185  1
  Ti  Ti11654  1  0.47619050  0.45238093  0.65185185  1
  Ti  Ti11655  1  0.47619050  0.52380950  0.65185185  1
  Ti  Ti11656  1  0.47619050  0.59523807  0.65185185  1
  Ti  Ti11657  1  0.47619050  0.66666664  0.65185185  1
  Ti  Ti11658  1  0.47619050  0.73809521  0.65185185  1
  Ti  Ti11659  1  0.47619050  0.80952379  0.65185185  1
  Ti  Ti11660  1  0.47619050  0.88095236  0.65185185  1
  Ti  Ti11661  1  0.47619050  0.95238093  0.65185185  1
  Ti  Ti11662  1  0.54761907  0.02380950  0.65185185  1
  Ti  Ti11663  1  0.54761907  0.09523807  0.65185185  1
  Ti  Ti11664  1  0.54761907  0.16666664  0.65185185  1
  Ti  Ti11665  1  0.54761907  0.23809521  0.65185185  1
  Ti  Ti11666  1  0.54761907  0.30952379  0.65185185  1
  Ti  Ti11667  1  0.54761907  0.38095236  0.65185185  1
  Ti  Ti11668  1  0.54761907  0.45238093  0.65185185  1
  Ti  Ti11669  1  0.54761907  0.52380950  0.65185185  1
  Ti  Ti11670  1  0.54761907  0.59523807  0.65185185  1
  Ti  Ti11671  1  0.54761907  0.66666664  0.65185185  1
  Ti  Ti11672  1  0.54761907  0.73809521  0.65185185  1
  Ti  Ti11673  1  0.54761907  0.80952379  0.65185185  1
  Ti  Ti11674  1  0.54761907  0.88095236  0.65185185  1
  Ti  Ti11675  1  0.54761907  0.95238093  0.65185185  1
  Ti  Ti11676  1  0.61904764  0.02380950  0.65185185  1
  Ti  Ti11677  1  0.61904764  0.09523807  0.65185185  1
  Ti  Ti11678  1  0.61904764  0.16666664  0.65185185  1
  Ti  Ti11679  1  0.61904764  0.23809521  0.65185185  1
  Ti  Ti11680  1  0.61904764  0.30952379  0.65185185  1
  Ti  Ti11681  1  0.61904764  0.38095236  0.65185185  1
  Ti  Ti11682  1  0.61904764  0.45238093  0.65185185  1
  Ti  Ti11683  1  0.61904764  0.52380950  0.65185185  1
  Ti  Ti11684  1  0.61904764  0.59523807  0.65185185  1
  Ti  Ti11685  1  0.61904764  0.66666664  0.65185185  1
  Ti  Ti11686  1  0.61904764  0.73809521  0.65185185  1
  Ti  Ti11687  1  0.61904764  0.80952379  0.65185185  1
  Ti  Ti11688  1  0.61904764  0.88095236  0.65185185  1
  Ti  Ti11689  1  0.61904764  0.95238093  0.65185185  1
  Ti  Ti11690  1  0.69047621  0.02380950  0.65185185  1
  Ti  Ti11691  1  0.69047621  0.09523807  0.65185185  1
  Ti  Ti11692  1  0.69047621  0.16666664  0.65185185  1
  Ti  Ti11693  1  0.69047621  0.23809521  0.65185185  1
  Ti  Ti11694  1  0.69047621  0.30952379  0.65185185  1
  Ti  Ti11695  1  0.69047621  0.38095236  0.65185185  1
  Ti  Ti11696  1  0.69047621  0.45238093  0.65185185  1
  Ti  Ti11697  1  0.69047621  0.52380950  0.65185185  1
  Ti  Ti11698  1  0.69047621  0.59523807  0.65185185  1
  Ti  Ti11699  1  0.69047621  0.66666664  0.65185185  1
  Ti  Ti11700  1  0.69047621  0.73809521  0.65185185  1
  Ti  Ti11701  1  0.69047621  0.80952379  0.65185185  1
  Ti  Ti11702  1  0.69047621  0.88095236  0.65185185  1
  Ti  Ti11703  1  0.69047621  0.95238093  0.65185185  1
  Ti  Ti11704  1  0.76190479  0.02380950  0.65185185  1
  Ti  Ti11705  1  0.76190479  0.09523807  0.65185185  1
  Ti  Ti11706  1  0.76190479  0.16666664  0.65185185  1
  Ti  Ti11707  1  0.76190479  0.23809521  0.65185185  1
  Ti  Ti11708  1  0.76190479  0.30952379  0.65185185  1
  Ti  Ti11709  1  0.76190479  0.38095236  0.65185185  1
  Ti  Ti11710  1  0.76190479  0.45238093  0.65185185  1
  Ti  Ti11711  1  0.76190479  0.52380950  0.65185185  1
  Ti  Ti11712  1  0.76190479  0.59523807  0.65185185  1
  Ti  Ti11713  1  0.76190479  0.66666664  0.65185185  1
  Ti  Ti11714  1  0.76190479  0.73809521  0.65185185  1
  Ti  Ti11715  1  0.76190479  0.80952379  0.65185185  1
  Ti  Ti11716  1  0.76190479  0.88095236  0.65185185  1
  Ti  Ti11717  1  0.76190479  0.95238093  0.65185185  1
  Ti  Ti11718  1  0.83333336  0.02380950  0.65185185  1
  Ti  Ti11719  1  0.83333336  0.09523807  0.65185185  1
  Ti  Ti11720  1  0.83333336  0.16666664  0.65185185  1
  Ti  Ti11721  1  0.83333336  0.23809521  0.65185185  1
  Ti  Ti11722  1  0.83333336  0.30952379  0.65185185  1
  Ti  Ti11723  1  0.83333336  0.38095236  0.65185185  1
  Ti  Ti11724  1  0.83333336  0.45238093  0.65185185  1
  Ti  Ti11725  1  0.83333336  0.52380950  0.65185185  1
  Ti  Ti11726  1  0.83333336  0.59523807  0.65185185  1
  Ti  Ti11727  1  0.83333336  0.66666664  0.65185185  1
  Ti  Ti11728  1  0.83333336  0.73809521  0.65185185  1
  Ti  Ti11729  1  0.83333336  0.80952379  0.65185185  1
  Ti  Ti11730  1  0.83333336  0.88095236  0.65185185  1
  Ti  Ti11731  1  0.83333336  0.95238093  0.65185185  1
  Ti  Ti11732  1  0.90476193  0.02380950  0.65185185  1
  Ti  Ti11733  1  0.90476193  0.09523807  0.65185185  1
  Ti  Ti11734  1  0.90476193  0.16666664  0.65185185  1
  Ti  Ti11735  1  0.90476193  0.23809521  0.65185185  1
  Ti  Ti11736  1  0.90476193  0.30952379  0.65185185  1
  Ti  Ti11737  1  0.90476193  0.38095236  0.65185185  1
  Ti  Ti11738  1  0.90476193  0.45238093  0.65185185  1
  Ti  Ti11739  1  0.90476193  0.52380950  0.65185185  1
  Ti  Ti11740  1  0.90476193  0.59523807  0.65185185  1
  Ti  Ti11741  1  0.90476193  0.66666664  0.65185185  1
  Ti  Ti11742  1  0.90476193  0.73809521  0.65185185  1
  Ti  Ti11743  1  0.90476193  0.80952379  0.65185185  1
  Ti  Ti11744  1  0.90476193  0.88095236  0.65185185  1
  Ti  Ti11745  1  0.90476193  0.95238093  0.65185185  1
  Ti  Ti11746  1  0.97619050  0.02380950  0.65185185  1
  Ti  Ti11747  1  0.97619050  0.09523807  0.65185185  1
  Ti  Ti11748  1  0.97619050  0.16666664  0.65185185  1
  Ti  Ti11749  1  0.97619050  0.23809521  0.65185185  1
  Ti  Ti11750  1  0.97619050  0.30952379  0.65185185  1
  Ti  Ti11751  1  0.97619050  0.38095236  0.65185185  1
  Ti  Ti11752  1  0.97619050  0.45238093  0.65185185  1
  Ti  Ti11753  1  0.97619050  0.52380950  0.65185185  1
  Ti  Ti11754  1  0.97619050  0.59523807  0.65185185  1
  Ti  Ti11755  1  0.97619050  0.66666664  0.65185185  1
  Ti  Ti11756  1  0.97619050  0.73809521  0.65185185  1
  Ti  Ti11757  1  0.97619050  0.80952379  0.65185185  1
  Ti  Ti11758  1  0.97619050  0.88095236  0.65185185  1
  Ti  Ti11759  1  0.97619050  0.95238093  0.65185185  1
  Ti  Ti11760  1  0.00000000  0.00000000  0.68518519  1
  Ti  Ti11761  1  0.00000000  0.07142857  0.68518519  1
  Ti  Ti11762  1  0.00000000  0.14285714  0.68518519  1
  Ti  Ti11763  1  0.00000000  0.21428571  0.68518519  1
  Ti  Ti11764  1  0.00000000  0.28571429  0.68518519  1
  Ti  Ti11765  1  0.00000000  0.35714286  0.68518519  1
  Ti  Ti11766  1  0.00000000  0.42857143  0.68518519  1
  Ti  Ti11767  1  0.00000000  0.50000000  0.68518519  1
  Ti  Ti11768  1  0.00000000  0.57142857  0.68518519  1
  Ti  Ti11769  1  0.00000000  0.64285714  0.68518519  1
  Ti  Ti11770  1  0.00000000  0.71428571  0.68518519  1
  Ti  Ti11771  1  1.00000000  0.78571429  0.68518519  1
  Ti  Ti11772  1  0.00000000  0.85714286  0.68518519  1
  Ti  Ti11773  1  0.00000000  0.92857143  0.68518519  1
  Ti  Ti11774  1  0.07142857  0.00000000  0.68518519  1
  Ti  Ti11775  1  0.07142857  0.07142857  0.68518519  1
  Ti  Ti11776  1  0.07142857  0.14285714  0.68518519  1
  Ti  Ti11777  1  0.07142857  0.21428571  0.68518519  1
  Ti  Ti11778  1  0.07142857  0.28571429  0.68518519  1
  Ti  Ti11779  1  0.07142857  0.35714286  0.68518519  1
  Ti  Ti11780  1  0.07142857  0.42857143  0.68518519  1
  Ti  Ti11781  1  0.07142857  0.50000000  0.68518519  1
  Ti  Ti11782  1  0.07142857  0.57142857  0.68518519  1
  Ti  Ti11783  1  0.07142857  0.64285714  0.68518519  1
  Ti  Ti11784  1  0.07142857  0.71428571  0.68518519  1
  Ti  Ti11785  1  0.07142857  0.78571429  0.68518519  1
  Ti  Ti11786  1  0.07142857  0.85714286  0.68518519  1
  Ti  Ti11787  1  0.07142857  0.92857143  0.68518519  1
  Ti  Ti11788  1  0.14285714  0.00000000  0.68518519  1
  Ti  Ti11789  1  0.14285714  0.07142857  0.68518519  1
  Ti  Ti11790  1  0.14285714  0.14285714  0.68518519  1
  Ti  Ti11791  1  0.14285714  0.21428571  0.68518519  1
  Ti  Ti11792  1  0.14285714  0.28571429  0.68518519  1
  Ti  Ti11793  1  0.14285714  0.35714286  0.68518519  1
  Ti  Ti11794  1  0.14285714  0.42857143  0.68518519  1
  Ti  Ti11795  1  0.14285714  0.50000000  0.68518519  1
  Ti  Ti11796  1  0.14285714  0.57142857  0.68518519  1
  Ti  Ti11797  1  0.14285714  0.64285714  0.68518519  1
  Ti  Ti11798  1  0.14285714  0.71428571  0.68518519  1
  Ti  Ti11799  1  0.14285714  0.78571429  0.68518519  1
  Ti  Ti11800  1  0.14285714  0.85714286  0.68518519  1
  Ti  Ti11801  1  0.14285714  0.92857143  0.68518519  1
  Ti  Ti11802  1  0.21428571  0.00000000  0.68518519  1
  Ti  Ti11803  1  0.21428571  0.07142857  0.68518519  1
  Ti  Ti11804  1  0.21428571  0.14285714  0.68518519  1
  Ti  Ti11805  1  0.21428571  0.21428571  0.68518519  1
  Ti  Ti11806  1  0.21428571  0.28571429  0.68518519  1
  Ti  Ti11807  1  0.21428571  0.35714286  0.68518519  1
  Ti  Ti11808  1  0.21428571  0.42857143  0.68518519  1
  Ti  Ti11809  1  0.21428571  0.50000000  0.68518519  1
  Ti  Ti11810  1  0.21428571  0.57142857  0.68518519  1
  Ti  Ti11811  1  0.21428571  0.64285714  0.68518519  1
  Ti  Ti11812  1  0.21428571  0.71428571  0.68518519  1
  Ti  Ti11813  1  0.21428571  0.78571429  0.68518519  1
  Ti  Ti11814  1  0.21428571  0.85714286  0.68518519  1
  Ti  Ti11815  1  0.21428571  0.92857143  0.68518519  1
  Ti  Ti11816  1  0.28571429  0.00000000  0.68518519  1
  Ti  Ti11817  1  0.28571429  0.07142857  0.68518519  1
  Ti  Ti11818  1  0.28571429  0.14285714  0.68518519  1
  Ti  Ti11819  1  0.28571429  0.21428571  0.68518519  1
  Ti  Ti11820  1  0.28571429  0.28571429  0.68518519  1
  Ti  Ti11821  1  0.28571429  0.35714286  0.68518519  1
  Ti  Ti11822  1  0.28571429  0.42857143  0.68518519  1
  Ti  Ti11823  1  0.28571429  0.50000000  0.68518519  1
  Ti  Ti11824  1  0.28571429  0.57142857  0.68518519  1
  Ti  Ti11825  1  0.28571429  0.64285714  0.68518519  1
  Ti  Ti11826  1  0.28571429  0.71428571  0.68518519  1
  Ti  Ti11827  1  0.28571429  0.78571429  0.68518519  1
  Ti  Ti11828  1  0.28571429  0.85714286  0.68518519  1
  Ti  Ti11829  1  0.28571429  0.92857143  0.68518519  1
  Ti  Ti11830  1  0.35714286  0.00000000  0.68518519  1
  Ti  Ti11831  1  0.35714286  0.07142857  0.68518519  1
  Ti  Ti11832  1  0.35714286  0.14285714  0.68518519  1
  Ti  Ti11833  1  0.35714286  0.21428571  0.68518519  1
  Ti  Ti11834  1  0.35714286  0.28571429  0.68518519  1
  Ti  Ti11835  1  0.35714286  0.35714286  0.68518519  1
  Ti  Ti11836  1  0.35714286  0.42857143  0.68518519  1
  Ti  Ti11837  1  0.35714286  0.50000000  0.68518519  1
  Ti  Ti11838  1  0.35714286  0.57142857  0.68518519  1
  Ti  Ti11839  1  0.35714286  0.64285714  0.68518519  1
  Ti  Ti11840  1  0.35714286  0.71428571  0.68518519  1
  Ti  Ti11841  1  0.35714286  0.78571429  0.68518519  1
  Ti  Ti11842  1  0.35714286  0.85714286  0.68518519  1
  Ti  Ti11843  1  0.35714286  0.92857143  0.68518519  1
  Ti  Ti11844  1  0.42857143  0.00000000  0.68518519  1
  Ti  Ti11845  1  0.42857143  0.07142857  0.68518519  1
  Ti  Ti11846  1  0.42857143  0.14285714  0.68518519  1
  Ti  Ti11847  1  0.42857143  0.21428571  0.68518519  1
  Ti  Ti11848  1  0.42857143  0.28571429  0.68518519  1
  Ti  Ti11849  1  0.42857143  0.35714286  0.68518519  1
  Ti  Ti11850  1  0.42857143  0.42857143  0.68518519  1
  Ti  Ti11851  1  0.42857143  0.50000000  0.68518519  1
  Ti  Ti11852  1  0.42857143  0.57142857  0.68518519  1
  Ti  Ti11853  1  0.42857143  0.64285714  0.68518519  1
  Ti  Ti11854  1  0.42857143  0.71428571  0.68518519  1
  Ti  Ti11855  1  0.42857143  0.78571429  0.68518519  1
  Ti  Ti11856  1  0.42857143  0.85714286  0.68518519  1
  Ti  Ti11857  1  0.42857143  0.92857143  0.68518519  1
  Ti  Ti11858  1  0.50000000  0.00000000  0.68518519  1
  Ti  Ti11859  1  0.50000000  0.07142857  0.68518519  1
  Ti  Ti11860  1  0.50000000  0.14285714  0.68518519  1
  Ti  Ti11861  1  0.50000000  0.21428571  0.68518519  1
  Ti  Ti11862  1  0.50000000  0.28571429  0.68518519  1
  Ti  Ti11863  1  0.50000000  0.35714286  0.68518519  1
  Ti  Ti11864  1  0.50000000  0.42857143  0.68518519  1
  Ti  Ti11865  1  0.50000000  0.50000000  0.68518519  1
  Ti  Ti11866  1  0.50000000  0.57142857  0.68518519  1
  Ti  Ti11867  1  0.50000000  0.64285714  0.68518519  1
  Ti  Ti11868  1  0.50000000  0.71428571  0.68518519  1
  Ti  Ti11869  1  0.50000000  0.78571429  0.68518519  1
  Ti  Ti11870  1  0.50000000  0.85714286  0.68518519  1
  Ti  Ti11871  1  0.50000000  0.92857143  0.68518519  1
  Ti  Ti11872  1  0.57142857  0.00000000  0.68518519  1
  Ti  Ti11873  1  0.57142857  0.07142857  0.68518519  1
  Ti  Ti11874  1  0.57142857  0.14285714  0.68518519  1
  Ti  Ti11875  1  0.57142857  0.21428571  0.68518519  1
  Ti  Ti11876  1  0.57142857  0.28571429  0.68518519  1
  Ti  Ti11877  1  0.57142857  0.35714286  0.68518519  1
  Ti  Ti11878  1  0.57142857  0.42857143  0.68518519  1
  Ti  Ti11879  1  0.57142857  0.50000000  0.68518519  1
  Ti  Ti11880  1  0.57142857  0.57142857  0.68518519  1
  Ti  Ti11881  1  0.57142857  0.64285714  0.68518519  1
  Ti  Ti11882  1  0.57142857  0.71428571  0.68518519  1
  Ti  Ti11883  1  0.57142857  0.78571429  0.68518519  1
  Ti  Ti11884  1  0.57142857  0.85714286  0.68518519  1
  Ti  Ti11885  1  0.57142857  0.92857143  0.68518519  1
  Ti  Ti11886  1  0.64285714  0.00000000  0.68518519  1
  Ti  Ti11887  1  0.64285714  0.07142857  0.68518519  1
  Ti  Ti11888  1  0.64285714  0.14285714  0.68518519  1
  Ti  Ti11889  1  0.64285714  0.21428571  0.68518519  1
  Ti  Ti11890  1  0.64285714  0.28571429  0.68518519  1
  Ti  Ti11891  1  0.64285714  0.35714286  0.68518519  1
  Ti  Ti11892  1  0.64285714  0.42857143  0.68518519  1
  Ti  Ti11893  1  0.64285714  0.50000000  0.68518519  1
  Ti  Ti11894  1  0.64285714  0.57142857  0.68518519  1
  Ti  Ti11895  1  0.64285714  0.64285714  0.68518519  1
  Ti  Ti11896  1  0.64285714  0.71428571  0.68518519  1
  Ti  Ti11897  1  0.64285714  0.78571429  0.68518519  1
  Ti  Ti11898  1  0.64285714  0.85714286  0.68518519  1
  Ti  Ti11899  1  0.64285714  0.92857143  0.68518519  1
  Ti  Ti11900  1  0.71428571  0.00000000  0.68518519  1
  Ti  Ti11901  1  0.71428571  0.07142857  0.68518519  1
  Ti  Ti11902  1  0.71428571  0.14285714  0.68518519  1
  Ti  Ti11903  1  0.71428571  0.21428571  0.68518519  1
  Ti  Ti11904  1  0.71428571  0.28571429  0.68518519  1
  Ti  Ti11905  1  0.71428571  0.35714286  0.68518519  1
  Ti  Ti11906  1  0.71428571  0.42857143  0.68518519  1
  Ti  Ti11907  1  0.71428571  0.50000000  0.68518519  1
  Ti  Ti11908  1  0.71428571  0.57142857  0.68518519  1
  Ti  Ti11909  1  0.71428571  0.64285714  0.68518519  1
  Ti  Ti11910  1  0.71428571  0.71428571  0.68518519  1
  Ti  Ti11911  1  0.71428571  0.78571429  0.68518519  1
  Ti  Ti11912  1  0.71428571  0.85714286  0.68518519  1
  Ti  Ti11913  1  0.71428571  0.92857143  0.68518519  1
  Ti  Ti11914  1  0.78571429  0.00000000  0.68518519  1
  Ti  Ti11915  1  0.78571429  0.07142857  0.68518519  1
  Ti  Ti11916  1  0.78571429  0.14285714  0.68518519  1
  Ti  Ti11917  1  0.78571429  0.21428571  0.68518519  1
  Ti  Ti11918  1  0.78571429  0.28571429  0.68518519  1
  Ti  Ti11919  1  0.78571429  0.35714286  0.68518519  1
  Ti  Ti11920  1  0.78571429  0.42857143  0.68518519  1
  Ti  Ti11921  1  0.78571429  0.50000000  0.68518519  1
  Ti  Ti11922  1  0.78571429  0.57142857  0.68518519  1
  Ti  Ti11923  1  0.78571429  0.64285714  0.68518519  1
  Ti  Ti11924  1  0.78571429  0.71428571  0.68518519  1
  Ti  Ti11925  1  0.78571429  0.78571429  0.68518519  1
  Ti  Ti11926  1  0.78571429  0.85714286  0.68518519  1
  Ti  Ti11927  1  0.78571429  0.92857143  0.68518519  1
  Ti  Ti11928  1  0.85714286  0.00000000  0.68518519  1
  Ti  Ti11929  1  0.85714286  0.07142857  0.68518519  1
  Ti  Ti11930  1  0.85714286  0.14285714  0.68518519  1
  Ti  Ti11931  1  0.85714286  0.21428571  0.68518519  1
  Ti  Ti11932  1  0.85714286  0.28571429  0.68518519  1
  Ti  Ti11933  1  0.85714286  0.35714286  0.68518519  1
  Ti  Ti11934  1  0.85714286  0.42857143  0.68518519  1
  Ti  Ti11935  1  0.85714286  0.50000000  0.68518519  1
  Ti  Ti11936  1  0.85714286  0.57142857  0.68518519  1
  Ti  Ti11937  1  0.85714286  0.64285714  0.68518519  1
  Ti  Ti11938  1  0.85714286  0.71428571  0.68518519  1
  Ti  Ti11939  1  0.85714286  0.78571429  0.68518519  1
  Ti  Ti11940  1  0.85714286  0.85714286  0.68518519  1
  Ti  Ti11941  1  0.85714286  0.92857143  0.68518519  1
  Ti  Ti11942  1  0.92857143  0.00000000  0.68518519  1
  Ti  Ti11943  1  0.92857143  0.07142857  0.68518519  1
  Ti  Ti11944  1  0.92857143  0.14285714  0.68518519  1
  Ti  Ti11945  1  0.92857143  0.21428571  0.68518519  1
  Ti  Ti11946  1  0.92857143  0.28571429  0.68518519  1
  Ti  Ti11947  1  0.92857143  0.35714286  0.68518519  1
  Ti  Ti11948  1  0.92857143  0.42857143  0.68518519  1
  Ti  Ti11949  1  0.92857143  0.50000000  0.68518519  1
  Ti  Ti11950  1  0.92857143  0.57142857  0.68518519  1
  Ti  Ti11951  1  0.92857143  0.64285714  0.68518519  1
  Ti  Ti11952  1  0.92857143  0.71428571  0.68518519  1
  Ti  Ti11953  1  0.92857143  0.78571429  0.68518519  1
  Ti  Ti11954  1  0.92857143  0.85714286  0.68518519  1
  Ti  Ti11955  1  0.92857143  0.92857143  0.68518519  1
  Ti  Ti11956  1  0.02380950  0.04761907  0.67407407  1
  Ti  Ti11957  1  0.02380950  0.11904764  0.67407407  1
  Ti  Ti11958  1  0.02380950  0.19047621  0.67407407  1
  Ti  Ti11959  1  0.02380950  0.26190479  0.67407407  1
  Ti  Ti11960  1  0.02380950  0.33333336  0.67407407  1
  Ti  Ti11961  1  0.02380950  0.40476193  0.67407407  1
  Ti  Ti11962  1  0.02380950  0.47619050  0.67407407  1
  Ti  Ti11963  1  0.02380950  0.54761907  0.67407407  1
  Ti  Ti11964  1  0.02380950  0.61904764  0.67407407  1
  Ti  Ti11965  1  0.02380950  0.69047621  0.67407407  1
  Ti  Ti11966  1  0.02380950  0.76190479  0.67407407  1
  Ti  Ti11967  1  0.02380950  0.83333336  0.67407407  1
  Ti  Ti11968  1  0.02380950  0.90476193  0.67407407  1
  Ti  Ti11969  1  0.02380950  0.97619050  0.67407407  1
  Ti  Ti11970  1  0.09523807  0.04761907  0.67407407  1
  Ti  Ti11971  1  0.09523807  0.11904764  0.67407407  1
  Ti  Ti11972  1  0.09523807  0.19047621  0.67407407  1
  Ti  Ti11973  1  0.09523807  0.26190479  0.67407407  1
  Ti  Ti11974  1  0.09523807  0.33333336  0.67407407  1
  Ti  Ti11975  1  0.09523807  0.40476193  0.67407407  1
  Ti  Ti11976  1  0.09523807  0.47619050  0.67407407  1
  Ti  Ti11977  1  0.09523807  0.54761907  0.67407407  1
  Ti  Ti11978  1  0.09523807  0.61904764  0.67407407  1
  Ti  Ti11979  1  0.09523807  0.69047621  0.67407407  1
  Ti  Ti11980  1  0.09523807  0.76190479  0.67407407  1
  Ti  Ti11981  1  0.09523807  0.83333336  0.67407407  1
  Ti  Ti11982  1  0.09523807  0.90476193  0.67407407  1
  Ti  Ti11983  1  0.09523807  0.97619050  0.67407407  1
  Ti  Ti11984  1  0.16666664  0.04761907  0.67407407  1
  Ti  Ti11985  1  0.16666664  0.11904764  0.67407407  1
  Ti  Ti11986  1  0.16666664  0.19047621  0.67407407  1
  Ti  Ti11987  1  0.16666664  0.26190479  0.67407407  1
  Ti  Ti11988  1  0.16666664  0.33333336  0.67407407  1
  Ti  Ti11989  1  0.16666664  0.40476193  0.67407407  1
  Ti  Ti11990  1  0.16666664  0.47619050  0.67407407  1
  Ti  Ti11991  1  0.16666664  0.54761907  0.67407407  1
  Ti  Ti11992  1  0.16666664  0.61904764  0.67407407  1
  Ti  Ti11993  1  0.16666664  0.69047621  0.67407407  1
  Ti  Ti11994  1  0.16666664  0.76190479  0.67407407  1
  Ti  Ti11995  1  0.16666664  0.83333336  0.67407407  1
  Ti  Ti11996  1  0.16666664  0.90476193  0.67407407  1
  Ti  Ti11997  1  0.16666664  0.97619050  0.67407407  1
  Ti  Ti11998  1  0.23809521  0.04761907  0.67407407  1
  Ti  Ti11999  1  0.23809521  0.11904764  0.67407407  1
  Ti  Ti12000  1  0.23809521  0.19047621  0.67407407  1
  Ti  Ti12001  1  0.23809521  0.26190479  0.67407407  1
  Ti  Ti12002  1  0.23809521  0.33333336  0.67407407  1
  Ti  Ti12003  1  0.23809521  0.40476193  0.67407407  1
  Ti  Ti12004  1  0.23809521  0.47619050  0.67407407  1
  Ti  Ti12005  1  0.23809521  0.54761907  0.67407407  1
  Ti  Ti12006  1  0.23809521  0.61904764  0.67407407  1
  Ti  Ti12007  1  0.23809521  0.69047621  0.67407407  1
  Ti  Ti12008  1  0.23809521  0.76190479  0.67407407  1
  Ti  Ti12009  1  0.23809521  0.83333336  0.67407407  1
  Ti  Ti12010  1  0.23809521  0.90476193  0.67407407  1
  Ti  Ti12011  1  0.23809521  0.97619050  0.67407407  1
  Ti  Ti12012  1  0.30952379  0.04761907  0.67407407  1
  Ti  Ti12013  1  0.30952379  0.11904764  0.67407407  1
  Ti  Ti12014  1  0.30952379  0.19047621  0.67407407  1
  Ti  Ti12015  1  0.30952379  0.26190479  0.67407407  1
  Ti  Ti12016  1  0.30952379  0.33333336  0.67407407  1
  Ti  Ti12017  1  0.30952379  0.40476193  0.67407407  1
  Ti  Ti12018  1  0.30952379  0.47619050  0.67407407  1
  Ti  Ti12019  1  0.30952379  0.54761907  0.67407407  1
  Ti  Ti12020  1  0.30952379  0.61904764  0.67407407  1
  Ti  Ti12021  1  0.30952379  0.69047621  0.67407407  1
  Ti  Ti12022  1  0.30952379  0.76190479  0.67407407  1
  Ti  Ti12023  1  0.30952379  0.83333336  0.67407407  1
  Ti  Ti12024  1  0.30952379  0.90476193  0.67407407  1
  Ti  Ti12025  1  0.30952379  0.97619050  0.67407407  1
  Ti  Ti12026  1  0.38095236  0.04761907  0.67407407  1
  Ti  Ti12027  1  0.38095236  0.11904764  0.67407407  1
  Ti  Ti12028  1  0.38095236  0.19047621  0.67407407  1
  Ti  Ti12029  1  0.38095236  0.26190479  0.67407407  1
  Ti  Ti12030  1  0.38095236  0.33333336  0.67407407  1
  Ti  Ti12031  1  0.38095236  0.40476193  0.67407407  1
  Ti  Ti12032  1  0.38095236  0.47619050  0.67407407  1
  Ti  Ti12033  1  0.38095236  0.54761907  0.67407407  1
  Ti  Ti12034  1  0.38095236  0.61904764  0.67407407  1
  Ti  Ti12035  1  0.38095236  0.69047621  0.67407407  1
  Ti  Ti12036  1  0.38095236  0.76190479  0.67407407  1
  Ti  Ti12037  1  0.38095236  0.83333336  0.67407407  1
  Ti  Ti12038  1  0.38095236  0.90476193  0.67407407  1
  Ti  Ti12039  1  0.38095236  0.97619050  0.67407407  1
  Ti  Ti12040  1  0.45238093  0.04761907  0.67407407  1
  Ti  Ti12041  1  0.45238093  0.11904764  0.67407407  1
  Ti  Ti12042  1  0.45238093  0.19047621  0.67407407  1
  Ti  Ti12043  1  0.45238093  0.26190479  0.67407407  1
  Ti  Ti12044  1  0.45238093  0.33333336  0.67407407  1
  Ti  Ti12045  1  0.45238093  0.40476193  0.67407407  1
  Ti  Ti12046  1  0.45238093  0.47619050  0.67407407  1
  Ti  Ti12047  1  0.45238093  0.54761907  0.67407407  1
  Ti  Ti12048  1  0.45238093  0.61904764  0.67407407  1
  Ti  Ti12049  1  0.45238093  0.69047621  0.67407407  1
  Ti  Ti12050  1  0.45238093  0.76190479  0.67407407  1
  Ti  Ti12051  1  0.45238093  0.83333336  0.67407407  1
  Ti  Ti12052  1  0.45238093  0.90476193  0.67407407  1
  Ti  Ti12053  1  0.45238093  0.97619050  0.67407407  1
  Ti  Ti12054  1  0.52380950  0.04761907  0.67407407  1
  Ti  Ti12055  1  0.52380950  0.11904764  0.67407407  1
  Ti  Ti12056  1  0.52380950  0.19047621  0.67407407  1
  Ti  Ti12057  1  0.52380950  0.26190479  0.67407407  1
  Ti  Ti12058  1  0.52380950  0.33333336  0.67407407  1
  Ti  Ti12059  1  0.52380950  0.40476193  0.67407407  1
  Ti  Ti12060  1  0.52380950  0.47619050  0.67407407  1
  Ti  Ti12061  1  0.52380950  0.54761907  0.67407407  1
  Ti  Ti12062  1  0.52380950  0.61904764  0.67407407  1
  Ti  Ti12063  1  0.52380950  0.69047621  0.67407407  1
  Ti  Ti12064  1  0.52380950  0.76190479  0.67407407  1
  Ti  Ti12065  1  0.52380950  0.83333336  0.67407407  1
  Ti  Ti12066  1  0.52380950  0.90476193  0.67407407  1
  Ti  Ti12067  1  0.52380950  0.97619050  0.67407407  1
  Ti  Ti12068  1  0.59523807  0.04761907  0.67407407  1
  Ti  Ti12069  1  0.59523807  0.11904764  0.67407407  1
  Ti  Ti12070  1  0.59523807  0.19047621  0.67407407  1
  Ti  Ti12071  1  0.59523807  0.26190479  0.67407407  1
  Ti  Ti12072  1  0.59523807  0.33333336  0.67407407  1
  Ti  Ti12073  1  0.59523807  0.40476193  0.67407407  1
  Ti  Ti12074  1  0.59523807  0.47619050  0.67407407  1
  Ti  Ti12075  1  0.59523807  0.54761907  0.67407407  1
  Ti  Ti12076  1  0.59523807  0.61904764  0.67407407  1
  Ti  Ti12077  1  0.59523807  0.69047621  0.67407407  1
  Ti  Ti12078  1  0.59523807  0.76190479  0.67407407  1
  Ti  Ti12079  1  0.59523807  0.83333336  0.67407407  1
  Ti  Ti12080  1  0.59523807  0.90476193  0.67407407  1
  Ti  Ti12081  1  0.59523807  0.97619050  0.67407407  1
  Ti  Ti12082  1  0.66666664  0.04761907  0.67407407  1
  Ti  Ti12083  1  0.66666664  0.11904764  0.67407407  1
  Ti  Ti12084  1  0.66666664  0.19047621  0.67407407  1
  Ti  Ti12085  1  0.66666664  0.26190479  0.67407407  1
  Ti  Ti12086  1  0.66666664  0.33333336  0.67407407  1
  Ti  Ti12087  1  0.66666664  0.40476193  0.67407407  1
  Ti  Ti12088  1  0.66666664  0.47619050  0.67407407  1
  Ti  Ti12089  1  0.66666664  0.54761907  0.67407407  1
  Ti  Ti12090  1  0.66666664  0.61904764  0.67407407  1
  Ti  Ti12091  1  0.66666664  0.69047621  0.67407407  1
  Ti  Ti12092  1  0.66666664  0.76190479  0.67407407  1
  Ti  Ti12093  1  0.66666664  0.83333336  0.67407407  1
  Ti  Ti12094  1  0.66666664  0.90476193  0.67407407  1
  Ti  Ti12095  1  0.66666664  0.97619050  0.67407407  1
  Ti  Ti12096  1  0.73809521  0.04761907  0.67407407  1
  Ti  Ti12097  1  0.73809521  0.11904764  0.67407407  1
  Ti  Ti12098  1  0.73809521  0.19047621  0.67407407  1
  Ti  Ti12099  1  0.73809521  0.26190479  0.67407407  1
  Ti  Ti12100  1  0.73809521  0.33333336  0.67407407  1
  Ti  Ti12101  1  0.73809521  0.40476193  0.67407407  1
  Ti  Ti12102  1  0.73809521  0.47619050  0.67407407  1
  Ti  Ti12103  1  0.73809521  0.54761907  0.67407407  1
  Ti  Ti12104  1  0.73809521  0.61904764  0.67407407  1
  Ti  Ti12105  1  0.73809521  0.69047621  0.67407407  1
  Ti  Ti12106  1  0.73809521  0.76190479  0.67407407  1
  Ti  Ti12107  1  0.73809521  0.83333336  0.67407407  1
  Ti  Ti12108  1  0.73809521  0.90476193  0.67407407  1
  Ti  Ti12109  1  0.73809521  0.97619050  0.67407407  1
  Ti  Ti12110  1  0.80952379  0.04761907  0.67407407  1
  Ti  Ti12111  1  0.80952379  0.11904764  0.67407407  1
  Ti  Ti12112  1  0.80952379  0.19047621  0.67407407  1
  Ti  Ti12113  1  0.80952379  0.26190479  0.67407407  1
  Ti  Ti12114  1  0.80952379  0.33333336  0.67407407  1
  Ti  Ti12115  1  0.80952379  0.40476193  0.67407407  1
  Ti  Ti12116  1  0.80952379  0.47619050  0.67407407  1
  Ti  Ti12117  1  0.80952379  0.54761907  0.67407407  1
  Ti  Ti12118  1  0.80952379  0.61904764  0.67407407  1
  Ti  Ti12119  1  0.80952379  0.69047621  0.67407407  1
  Ti  Ti12120  1  0.80952379  0.76190479  0.67407407  1
  Ti  Ti12121  1  0.80952379  0.83333336  0.67407407  1
  Ti  Ti12122  1  0.80952379  0.90476193  0.67407407  1
  Ti  Ti12123  1  0.80952379  0.97619050  0.67407407  1
  Ti  Ti12124  1  0.88095236  0.04761907  0.67407407  1
  Ti  Ti12125  1  0.88095236  0.11904764  0.67407407  1
  Ti  Ti12126  1  0.88095236  0.19047621  0.67407407  1
  Ti  Ti12127  1  0.88095236  0.26190479  0.67407407  1
  Ti  Ti12128  1  0.88095236  0.33333336  0.67407407  1
  Ti  Ti12129  1  0.88095236  0.40476193  0.67407407  1
  Ti  Ti12130  1  0.88095236  0.47619050  0.67407407  1
  Ti  Ti12131  1  0.88095236  0.54761907  0.67407407  1
  Ti  Ti12132  1  0.88095236  0.61904764  0.67407407  1
  Ti  Ti12133  1  0.88095236  0.69047621  0.67407407  1
  Ti  Ti12134  1  0.88095236  0.76190479  0.67407407  1
  Ti  Ti12135  1  0.88095236  0.83333336  0.67407407  1
  Ti  Ti12136  1  0.88095236  0.90476193  0.67407407  1
  Ti  Ti12137  1  0.88095236  0.97619050  0.67407407  1
  Ti  Ti12138  1  0.95238093  0.04761907  0.67407407  1
  Ti  Ti12139  1  0.95238093  0.11904764  0.67407407  1
  Ti  Ti12140  1  0.95238093  0.19047621  0.67407407  1
  Ti  Ti12141  1  0.95238093  0.26190479  0.67407407  1
  Ti  Ti12142  1  0.95238093  0.33333336  0.67407407  1
  Ti  Ti12143  1  0.95238093  0.40476193  0.67407407  1
  Ti  Ti12144  1  0.95238093  0.47619050  0.67407407  1
  Ti  Ti12145  1  0.95238093  0.54761907  0.67407407  1
  Ti  Ti12146  1  0.95238093  0.61904764  0.67407407  1
  Ti  Ti12147  1  0.95238093  0.69047621  0.67407407  1
  Ti  Ti12148  1  0.95238093  0.76190479  0.67407407  1
  Ti  Ti12149  1  0.95238093  0.83333336  0.67407407  1
  Ti  Ti12150  1  0.95238093  0.90476193  0.67407407  1
  Ti  Ti12151  1  0.95238093  0.97619050  0.67407407  1
  Ti  Ti12152  1  0.04761907  0.02380950  0.67407407  1
  Ti  Ti12153  1  0.04761907  0.09523807  0.67407407  1
  Ti  Ti12154  1  0.04761907  0.16666664  0.67407407  1
  Ti  Ti12155  1  0.04761907  0.23809521  0.67407407  1
  Ti  Ti12156  1  0.04761907  0.30952379  0.67407407  1
  Ti  Ti12157  1  0.04761907  0.38095236  0.67407407  1
  Ti  Ti12158  1  0.04761907  0.45238093  0.67407407  1
  Ti  Ti12159  1  0.04761907  0.52380950  0.67407407  1
  Ti  Ti12160  1  0.04761907  0.59523807  0.67407407  1
  Ti  Ti12161  1  0.04761907  0.66666664  0.67407407  1
  Ti  Ti12162  1  0.04761907  0.73809521  0.67407407  1
  Ti  Ti12163  1  0.04761907  0.80952379  0.67407407  1
  Ti  Ti12164  1  0.04761907  0.88095236  0.67407407  1
  Ti  Ti12165  1  0.04761907  0.95238093  0.67407407  1
  Ti  Ti12166  1  0.11904764  0.02380950  0.67407407  1
  Ti  Ti12167  1  0.11904764  0.09523807  0.67407407  1
  Ti  Ti12168  1  0.11904764  0.16666664  0.67407407  1
  Ti  Ti12169  1  0.11904764  0.23809521  0.67407407  1
  Ti  Ti12170  1  0.11904764  0.30952379  0.67407407  1
  Ti  Ti12171  1  0.11904764  0.38095236  0.67407407  1
  Ti  Ti12172  1  0.11904764  0.45238093  0.67407407  1
  Ti  Ti12173  1  0.11904764  0.52380950  0.67407407  1
  Ti  Ti12174  1  0.11904764  0.59523807  0.67407407  1
  Ti  Ti12175  1  0.11904764  0.66666664  0.67407407  1
  Ti  Ti12176  1  0.11904764  0.73809521  0.67407407  1
  Ti  Ti12177  1  0.11904764  0.80952379  0.67407407  1
  Ti  Ti12178  1  0.11904764  0.88095236  0.67407407  1
  Ti  Ti12179  1  0.11904764  0.95238093  0.67407407  1
  Ti  Ti12180  1  0.19047621  0.02380950  0.67407407  1
  Ti  Ti12181  1  0.19047621  0.09523807  0.67407407  1
  Ti  Ti12182  1  0.19047621  0.16666664  0.67407407  1
  Ti  Ti12183  1  0.19047621  0.23809521  0.67407407  1
  Ti  Ti12184  1  0.19047621  0.30952379  0.67407407  1
  Ti  Ti12185  1  0.19047621  0.38095236  0.67407407  1
  Ti  Ti12186  1  0.19047621  0.45238093  0.67407407  1
  Ti  Ti12187  1  0.19047621  0.52380950  0.67407407  1
  Ti  Ti12188  1  0.19047621  0.59523807  0.67407407  1
  Ti  Ti12189  1  0.19047621  0.66666664  0.67407407  1
  Ti  Ti12190  1  0.19047621  0.73809521  0.67407407  1
  Ti  Ti12191  1  0.19047621  0.80952379  0.67407407  1
  Ti  Ti12192  1  0.19047621  0.88095236  0.67407407  1
  Ti  Ti12193  1  0.19047621  0.95238093  0.67407407  1
  Ti  Ti12194  1  0.26190479  0.02380950  0.67407407  1
  Ti  Ti12195  1  0.26190479  0.09523807  0.67407407  1
  Ti  Ti12196  1  0.26190479  0.16666664  0.67407407  1
  Ti  Ti12197  1  0.26190479  0.23809521  0.67407407  1
  Ti  Ti12198  1  0.26190479  0.30952379  0.67407407  1
  Ti  Ti12199  1  0.26190479  0.38095236  0.67407407  1
  Ti  Ti12200  1  0.26190479  0.45238093  0.67407407  1
  Ti  Ti12201  1  0.26190479  0.52380950  0.67407407  1
  Ti  Ti12202  1  0.26190479  0.59523807  0.67407407  1
  Ti  Ti12203  1  0.26190479  0.66666664  0.67407407  1
  Ti  Ti12204  1  0.26190479  0.73809521  0.67407407  1
  Ti  Ti12205  1  0.26190479  0.80952379  0.67407407  1
  Ti  Ti12206  1  0.26190479  0.88095236  0.67407407  1
  Ti  Ti12207  1  0.26190479  0.95238093  0.67407407  1
  Ti  Ti12208  1  0.33333336  0.02380950  0.67407407  1
  Ti  Ti12209  1  0.33333336  0.09523807  0.67407407  1
  Ti  Ti12210  1  0.33333336  0.16666664  0.67407407  1
  Ti  Ti12211  1  0.33333336  0.23809521  0.67407407  1
  Ti  Ti12212  1  0.33333336  0.30952379  0.67407407  1
  Ti  Ti12213  1  0.33333336  0.38095236  0.67407407  1
  Ti  Ti12214  1  0.33333336  0.45238093  0.67407407  1
  Ti  Ti12215  1  0.33333336  0.52380950  0.67407407  1
  Ti  Ti12216  1  0.33333336  0.59523807  0.67407407  1
  Ti  Ti12217  1  0.33333336  0.66666664  0.67407407  1
  Ti  Ti12218  1  0.33333336  0.73809521  0.67407407  1
  Ti  Ti12219  1  0.33333336  0.80952379  0.67407407  1
  Ti  Ti12220  1  0.33333336  0.88095236  0.67407407  1
  Ti  Ti12221  1  0.33333336  0.95238093  0.67407407  1
  Ti  Ti12222  1  0.40476193  0.02380950  0.67407407  1
  Ti  Ti12223  1  0.40476193  0.09523807  0.67407407  1
  Ti  Ti12224  1  0.40476193  0.16666664  0.67407407  1
  Ti  Ti12225  1  0.40476193  0.23809521  0.67407407  1
  Ti  Ti12226  1  0.40476193  0.30952379  0.67407407  1
  Ti  Ti12227  1  0.40476193  0.38095236  0.67407407  1
  Ti  Ti12228  1  0.40476193  0.45238093  0.67407407  1
  Ti  Ti12229  1  0.40476193  0.52380950  0.67407407  1
  Ti  Ti12230  1  0.40476193  0.59523807  0.67407407  1
  Ti  Ti12231  1  0.40476193  0.66666664  0.67407407  1
  Ti  Ti12232  1  0.40476193  0.73809521  0.67407407  1
  Ti  Ti12233  1  0.40476193  0.80952379  0.67407407  1
  Ti  Ti12234  1  0.40476193  0.88095236  0.67407407  1
  Ti  Ti12235  1  0.40476193  0.95238093  0.67407407  1
  Ti  Ti12236  1  0.47619050  0.02380950  0.67407407  1
  Ti  Ti12237  1  0.47619050  0.09523807  0.67407407  1
  Ti  Ti12238  1  0.47619050  0.16666664  0.67407407  1
  Ti  Ti12239  1  0.47619050  0.23809521  0.67407407  1
  Ti  Ti12240  1  0.47619050  0.30952379  0.67407407  1
  Ti  Ti12241  1  0.47619050  0.38095236  0.67407407  1
  Ti  Ti12242  1  0.47619050  0.45238093  0.67407407  1
  Ti  Ti12243  1  0.47619050  0.52380950  0.67407407  1
  Ti  Ti12244  1  0.47619050  0.59523807  0.67407407  1
  Ti  Ti12245  1  0.47619050  0.66666664  0.67407407  1
  Ti  Ti12246  1  0.47619050  0.73809521  0.67407407  1
  Ti  Ti12247  1  0.47619050  0.80952379  0.67407407  1
  Ti  Ti12248  1  0.47619050  0.88095236  0.67407407  1
  Ti  Ti12249  1  0.47619050  0.95238093  0.67407407  1
  Ti  Ti12250  1  0.54761907  0.02380950  0.67407407  1
  Ti  Ti12251  1  0.54761907  0.09523807  0.67407407  1
  Ti  Ti12252  1  0.54761907  0.16666664  0.67407407  1
  Ti  Ti12253  1  0.54761907  0.23809521  0.67407407  1
  Ti  Ti12254  1  0.54761907  0.30952379  0.67407407  1
  Ti  Ti12255  1  0.54761907  0.38095236  0.67407407  1
  Ti  Ti12256  1  0.54761907  0.45238093  0.67407407  1
  Ti  Ti12257  1  0.54761907  0.52380950  0.67407407  1
  Ti  Ti12258  1  0.54761907  0.59523807  0.67407407  1
  Ti  Ti12259  1  0.54761907  0.66666664  0.67407407  1
  Ti  Ti12260  1  0.54761907  0.73809521  0.67407407  1
  Ti  Ti12261  1  0.54761907  0.80952379  0.67407407  1
  Ti  Ti12262  1  0.54761907  0.88095236  0.67407407  1
  Ti  Ti12263  1  0.54761907  0.95238093  0.67407407  1
  Ti  Ti12264  1  0.61904764  0.02380950  0.67407407  1
  Ti  Ti12265  1  0.61904764  0.09523807  0.67407407  1
  Ti  Ti12266  1  0.61904764  0.16666664  0.67407407  1
  Ti  Ti12267  1  0.61904764  0.23809521  0.67407407  1
  Ti  Ti12268  1  0.61904764  0.30952379  0.67407407  1
  Ti  Ti12269  1  0.61904764  0.38095236  0.67407407  1
  Ti  Ti12270  1  0.61904764  0.45238093  0.67407407  1
  Ti  Ti12271  1  0.61904764  0.52380950  0.67407407  1
  Ti  Ti12272  1  0.61904764  0.59523807  0.67407407  1
  Ti  Ti12273  1  0.61904764  0.66666664  0.67407407  1
  Ti  Ti12274  1  0.61904764  0.73809521  0.67407407  1
  Ti  Ti12275  1  0.61904764  0.80952379  0.67407407  1
  Ti  Ti12276  1  0.61904764  0.88095236  0.67407407  1
  Ti  Ti12277  1  0.61904764  0.95238093  0.67407407  1
  Ti  Ti12278  1  0.69047621  0.02380950  0.67407407  1
  Ti  Ti12279  1  0.69047621  0.09523807  0.67407407  1
  Ti  Ti12280  1  0.69047621  0.16666664  0.67407407  1
  Ti  Ti12281  1  0.69047621  0.23809521  0.67407407  1
  Ti  Ti12282  1  0.69047621  0.30952379  0.67407407  1
  Ti  Ti12283  1  0.69047621  0.38095236  0.67407407  1
  Ti  Ti12284  1  0.69047621  0.45238093  0.67407407  1
  Ti  Ti12285  1  0.69047621  0.52380950  0.67407407  1
  Ti  Ti12286  1  0.69047621  0.59523807  0.67407407  1
  Ti  Ti12287  1  0.69047621  0.66666664  0.67407407  1
  Ti  Ti12288  1  0.69047621  0.73809521  0.67407407  1
  Ti  Ti12289  1  0.69047621  0.80952379  0.67407407  1
  Ti  Ti12290  1  0.69047621  0.88095236  0.67407407  1
  Ti  Ti12291  1  0.69047621  0.95238093  0.67407407  1
  Ti  Ti12292  1  0.76190479  0.02380950  0.67407407  1
  Ti  Ti12293  1  0.76190479  0.09523807  0.67407407  1
  Ti  Ti12294  1  0.76190479  0.16666664  0.67407407  1
  Ti  Ti12295  1  0.76190479  0.23809521  0.67407407  1
  Ti  Ti12296  1  0.76190479  0.30952379  0.67407407  1
  Ti  Ti12297  1  0.76190479  0.38095236  0.67407407  1
  Ti  Ti12298  1  0.76190479  0.45238093  0.67407407  1
  Ti  Ti12299  1  0.76190479  0.52380950  0.67407407  1
  Ti  Ti12300  1  0.76190479  0.59523807  0.67407407  1
  Ti  Ti12301  1  0.76190479  0.66666664  0.67407407  1
  Ti  Ti12302  1  0.76190479  0.73809521  0.67407407  1
  Ti  Ti12303  1  0.76190479  0.80952379  0.67407407  1
  Ti  Ti12304  1  0.76190479  0.88095236  0.67407407  1
  Ti  Ti12305  1  0.76190479  0.95238093  0.67407407  1
  Ti  Ti12306  1  0.83333336  0.02380950  0.67407407  1
  Ti  Ti12307  1  0.83333336  0.09523807  0.67407407  1
  Ti  Ti12308  1  0.83333336  0.16666664  0.67407407  1
  Ti  Ti12309  1  0.83333336  0.23809521  0.67407407  1
  Ti  Ti12310  1  0.83333336  0.30952379  0.67407407  1
  Ti  Ti12311  1  0.83333336  0.38095236  0.67407407  1
  Ti  Ti12312  1  0.83333336  0.45238093  0.67407407  1
  Ti  Ti12313  1  0.83333336  0.52380950  0.67407407  1
  Ti  Ti12314  1  0.83333336  0.59523807  0.67407407  1
  Ti  Ti12315  1  0.83333336  0.66666664  0.67407407  1
  Ti  Ti12316  1  0.83333336  0.73809521  0.67407407  1
  Ti  Ti12317  1  0.83333336  0.80952379  0.67407407  1
  Ti  Ti12318  1  0.83333336  0.88095236  0.67407407  1
  Ti  Ti12319  1  0.83333336  0.95238093  0.67407407  1
  Ti  Ti12320  1  0.90476193  0.02380950  0.67407407  1
  Ti  Ti12321  1  0.90476193  0.09523807  0.67407407  1
  Ti  Ti12322  1  0.90476193  0.16666664  0.67407407  1
  Ti  Ti12323  1  0.90476193  0.23809521  0.67407407  1
  Ti  Ti12324  1  0.90476193  0.30952379  0.67407407  1
  Ti  Ti12325  1  0.90476193  0.38095236  0.67407407  1
  Ti  Ti12326  1  0.90476193  0.45238093  0.67407407  1
  Ti  Ti12327  1  0.90476193  0.52380950  0.67407407  1
  Ti  Ti12328  1  0.90476193  0.59523807  0.67407407  1
  Ti  Ti12329  1  0.90476193  0.66666664  0.67407407  1
  Ti  Ti12330  1  0.90476193  0.73809521  0.67407407  1
  Ti  Ti12331  1  0.90476193  0.80952379  0.67407407  1
  Ti  Ti12332  1  0.90476193  0.88095236  0.67407407  1
  Ti  Ti12333  1  0.90476193  0.95238093  0.67407407  1
  Ti  Ti12334  1  0.97619050  0.02380950  0.67407407  1
  Ti  Ti12335  1  0.97619050  0.09523807  0.67407407  1
  Ti  Ti12336  1  0.97619050  0.16666664  0.67407407  1
  Ti  Ti12337  1  0.97619050  0.23809521  0.67407407  1
  Ti  Ti12338  1  0.97619050  0.30952379  0.67407407  1
  Ti  Ti12339  1  0.97619050  0.38095236  0.67407407  1
  Ti  Ti12340  1  0.97619050  0.45238093  0.67407407  1
  Ti  Ti12341  1  0.97619050  0.52380950  0.67407407  1
  Ti  Ti12342  1  0.97619050  0.59523807  0.67407407  1
  Ti  Ti12343  1  0.97619050  0.66666664  0.67407407  1
  Ti  Ti12344  1  0.97619050  0.73809521  0.67407407  1
  Ti  Ti12345  1  0.97619050  0.80952379  0.67407407  1
  Ti  Ti12346  1  0.97619050  0.88095236  0.67407407  1
  Ti  Ti12347  1  0.97619050  0.95238093  0.67407407  1
  Ti  Ti12348  1  0.00000000  0.00000000  0.70740741  1
  Ti  Ti12349  1  0.00000000  0.07142857  0.70740741  1
  Ti  Ti12350  1  0.00000000  0.14285714  0.70740741  1
  Ti  Ti12351  1  0.00000000  0.21428571  0.70740741  1
  Ti  Ti12352  1  0.00000000  0.28571429  0.70740741  1
  Ti  Ti12353  1  0.00000000  0.35714286  0.70740741  1
  Ti  Ti12354  1  0.00000000  0.42857143  0.70740741  1
  Ti  Ti12355  1  0.00000000  0.50000000  0.70740741  1
  Ti  Ti12356  1  0.00000000  0.57142857  0.70740741  1
  Ti  Ti12357  1  0.00000000  0.64285714  0.70740741  1
  Ti  Ti12358  1  0.00000000  0.71428571  0.70740741  1
  Ti  Ti12359  1  1.00000000  0.78571429  0.70740741  1
  Ti  Ti12360  1  0.00000000  0.85714286  0.70740741  1
  Ti  Ti12361  1  0.00000000  0.92857143  0.70740741  1
  Ti  Ti12362  1  0.07142857  0.00000000  0.70740741  1
  Ti  Ti12363  1  0.07142857  0.07142857  0.70740741  1
  Ti  Ti12364  1  0.07142857  0.14285714  0.70740741  1
  Ti  Ti12365  1  0.07142857  0.21428571  0.70740741  1
  Ti  Ti12366  1  0.07142857  0.28571429  0.70740741  1
  Ti  Ti12367  1  0.07142857  0.35714286  0.70740741  1
  Ti  Ti12368  1  0.07142857  0.42857143  0.70740741  1
  Ti  Ti12369  1  0.07142857  0.50000000  0.70740741  1
  Ti  Ti12370  1  0.07142857  0.57142857  0.70740741  1
  Ti  Ti12371  1  0.07142857  0.64285714  0.70740741  1
  Ti  Ti12372  1  0.07142857  0.71428571  0.70740741  1
  Ti  Ti12373  1  0.07142857  0.78571429  0.70740741  1
  Ti  Ti12374  1  0.07142857  0.85714286  0.70740741  1
  Ti  Ti12375  1  0.07142857  0.92857143  0.70740741  1
  Ti  Ti12376  1  0.14285714  0.00000000  0.70740741  1
  Ti  Ti12377  1  0.14285714  0.07142857  0.70740741  1
  Ti  Ti12378  1  0.14285714  0.14285714  0.70740741  1
  Ti  Ti12379  1  0.14285714  0.21428571  0.70740741  1
  Ti  Ti12380  1  0.14285714  0.28571429  0.70740741  1
  Ti  Ti12381  1  0.14285714  0.35714286  0.70740741  1
  Ti  Ti12382  1  0.14285714  0.42857143  0.70740741  1
  Ti  Ti12383  1  0.14285714  0.50000000  0.70740741  1
  Ti  Ti12384  1  0.14285714  0.57142857  0.70740741  1
  Ti  Ti12385  1  0.14285714  0.64285714  0.70740741  1
  Ti  Ti12386  1  0.14285714  0.71428571  0.70740741  1
  Ti  Ti12387  1  0.14285714  0.78571429  0.70740741  1
  Ti  Ti12388  1  0.14285714  0.85714286  0.70740741  1
  Ti  Ti12389  1  0.14285714  0.92857143  0.70740741  1
  Ti  Ti12390  1  0.21428571  0.00000000  0.70740741  1
  Ti  Ti12391  1  0.21428571  0.07142857  0.70740741  1
  Ti  Ti12392  1  0.21428571  0.14285714  0.70740741  1
  Ti  Ti12393  1  0.21428571  0.21428571  0.70740741  1
  Ti  Ti12394  1  0.21428571  0.28571429  0.70740741  1
  Ti  Ti12395  1  0.21428571  0.35714286  0.70740741  1
  Ti  Ti12396  1  0.21428571  0.42857143  0.70740741  1
  Ti  Ti12397  1  0.21428571  0.50000000  0.70740741  1
  Ti  Ti12398  1  0.21428571  0.57142857  0.70740741  1
  Ti  Ti12399  1  0.21428571  0.64285714  0.70740741  1
  Ti  Ti12400  1  0.21428571  0.71428571  0.70740741  1
  Ti  Ti12401  1  0.21428571  0.78571429  0.70740741  1
  Ti  Ti12402  1  0.21428571  0.85714286  0.70740741  1
  Ti  Ti12403  1  0.21428571  0.92857143  0.70740741  1
  Ti  Ti12404  1  0.28571429  0.00000000  0.70740741  1
  Ti  Ti12405  1  0.28571429  0.07142857  0.70740741  1
  Ti  Ti12406  1  0.28571429  0.14285714  0.70740741  1
  Ti  Ti12407  1  0.28571429  0.21428571  0.70740741  1
  Ti  Ti12408  1  0.28571429  0.28571429  0.70740741  1
  Ti  Ti12409  1  0.28571429  0.35714286  0.70740741  1
  Ti  Ti12410  1  0.28571429  0.42857143  0.70740741  1
  Ti  Ti12411  1  0.28571429  0.50000000  0.70740741  1
  Ti  Ti12412  1  0.28571429  0.57142857  0.70740741  1
  Ti  Ti12413  1  0.28571429  0.64285714  0.70740741  1
  Ti  Ti12414  1  0.28571429  0.71428571  0.70740741  1
  Ti  Ti12415  1  0.28571429  0.78571429  0.70740741  1
  Ti  Ti12416  1  0.28571429  0.85714286  0.70740741  1
  Ti  Ti12417  1  0.28571429  0.92857143  0.70740741  1
  Ti  Ti12418  1  0.35714286  0.00000000  0.70740741  1
  Ti  Ti12419  1  0.35714286  0.07142857  0.70740741  1
  Ti  Ti12420  1  0.35714286  0.14285714  0.70740741  1
  Ti  Ti12421  1  0.35714286  0.21428571  0.70740741  1
  Ti  Ti12422  1  0.35714286  0.28571429  0.70740741  1
  Ti  Ti12423  1  0.35714286  0.35714286  0.70740741  1
  Ti  Ti12424  1  0.35714286  0.42857143  0.70740741  1
  Ti  Ti12425  1  0.35714286  0.50000000  0.70740741  1
  Ti  Ti12426  1  0.35714286  0.57142857  0.70740741  1
  Ti  Ti12427  1  0.35714286  0.64285714  0.70740741  1
  Ti  Ti12428  1  0.35714286  0.71428571  0.70740741  1
  Ti  Ti12429  1  0.35714286  0.78571429  0.70740741  1
  Ti  Ti12430  1  0.35714286  0.85714286  0.70740741  1
  Ti  Ti12431  1  0.35714286  0.92857143  0.70740741  1
  Ti  Ti12432  1  0.42857143  0.00000000  0.70740741  1
  Ti  Ti12433  1  0.42857143  0.07142857  0.70740741  1
  Ti  Ti12434  1  0.42857143  0.14285714  0.70740741  1
  Ti  Ti12435  1  0.42857143  0.21428571  0.70740741  1
  Ti  Ti12436  1  0.42857143  0.28571429  0.70740741  1
  Ti  Ti12437  1  0.42857143  0.35714286  0.70740741  1
  Ti  Ti12438  1  0.42857143  0.42857143  0.70740741  1
  Ti  Ti12439  1  0.42857143  0.50000000  0.70740741  1
  Ti  Ti12440  1  0.42857143  0.57142857  0.70740741  1
  Ti  Ti12441  1  0.42857143  0.64285714  0.70740741  1
  Ti  Ti12442  1  0.42857143  0.71428571  0.70740741  1
  Ti  Ti12443  1  0.42857143  0.78571429  0.70740741  1
  Ti  Ti12444  1  0.42857143  0.85714286  0.70740741  1
  Ti  Ti12445  1  0.42857143  0.92857143  0.70740741  1
  Ti  Ti12446  1  0.50000000  0.00000000  0.70740741  1
  Ti  Ti12447  1  0.50000000  0.07142857  0.70740741  1
  Ti  Ti12448  1  0.50000000  0.14285714  0.70740741  1
  Ti  Ti12449  1  0.50000000  0.21428571  0.70740741  1
  Ti  Ti12450  1  0.50000000  0.28571429  0.70740741  1
  Ti  Ti12451  1  0.50000000  0.35714286  0.70740741  1
  Ti  Ti12452  1  0.50000000  0.42857143  0.70740741  1
  Ti  Ti12453  1  0.50000000  0.50000000  0.70740741  1
  Ti  Ti12454  1  0.50000000  0.57142857  0.70740741  1
  Ti  Ti12455  1  0.50000000  0.64285714  0.70740741  1
  Ti  Ti12456  1  0.50000000  0.71428571  0.70740741  1
  Ti  Ti12457  1  0.50000000  0.78571429  0.70740741  1
  Ti  Ti12458  1  0.50000000  0.85714286  0.70740741  1
  Ti  Ti12459  1  0.50000000  0.92857143  0.70740741  1
  Ti  Ti12460  1  0.57142857  0.00000000  0.70740741  1
  Ti  Ti12461  1  0.57142857  0.07142857  0.70740741  1
  Ti  Ti12462  1  0.57142857  0.14285714  0.70740741  1
  Ti  Ti12463  1  0.57142857  0.21428571  0.70740741  1
  Ti  Ti12464  1  0.57142857  0.28571429  0.70740741  1
  Ti  Ti12465  1  0.57142857  0.35714286  0.70740741  1
  Ti  Ti12466  1  0.57142857  0.42857143  0.70740741  1
  Ti  Ti12467  1  0.57142857  0.50000000  0.70740741  1
  Ti  Ti12468  1  0.57142857  0.57142857  0.70740741  1
  Ti  Ti12469  1  0.57142857  0.64285714  0.70740741  1
  Ti  Ti12470  1  0.57142857  0.71428571  0.70740741  1
  Ti  Ti12471  1  0.57142857  0.78571429  0.70740741  1
  Ti  Ti12472  1  0.57142857  0.85714286  0.70740741  1
  Ti  Ti12473  1  0.57142857  0.92857143  0.70740741  1
  Ti  Ti12474  1  0.64285714  0.00000000  0.70740741  1
  Ti  Ti12475  1  0.64285714  0.07142857  0.70740741  1
  Ti  Ti12476  1  0.64285714  0.14285714  0.70740741  1
  Ti  Ti12477  1  0.64285714  0.21428571  0.70740741  1
  Ti  Ti12478  1  0.64285714  0.28571429  0.70740741  1
  Ti  Ti12479  1  0.64285714  0.35714286  0.70740741  1
  Ti  Ti12480  1  0.64285714  0.42857143  0.70740741  1
  Ti  Ti12481  1  0.64285714  0.50000000  0.70740741  1
  Ti  Ti12482  1  0.64285714  0.57142857  0.70740741  1
  Ti  Ti12483  1  0.64285714  0.64285714  0.70740741  1
  Ti  Ti12484  1  0.64285714  0.71428571  0.70740741  1
  Ti  Ti12485  1  0.64285714  0.78571429  0.70740741  1
  Ti  Ti12486  1  0.64285714  0.85714286  0.70740741  1
  Ti  Ti12487  1  0.64285714  0.92857143  0.70740741  1
  Ti  Ti12488  1  0.71428571  0.00000000  0.70740741  1
  Ti  Ti12489  1  0.71428571  0.07142857  0.70740741  1
  Ti  Ti12490  1  0.71428571  0.14285714  0.70740741  1
  Ti  Ti12491  1  0.71428571  0.21428571  0.70740741  1
  Ti  Ti12492  1  0.71428571  0.28571429  0.70740741  1
  Ti  Ti12493  1  0.71428571  0.35714286  0.70740741  1
  Ti  Ti12494  1  0.71428571  0.42857143  0.70740741  1
  Ti  Ti12495  1  0.71428571  0.50000000  0.70740741  1
  Ti  Ti12496  1  0.71428571  0.57142857  0.70740741  1
  Ti  Ti12497  1  0.71428571  0.64285714  0.70740741  1
  Ti  Ti12498  1  0.71428571  0.71428571  0.70740741  1
  Ti  Ti12499  1  0.71428571  0.78571429  0.70740741  1
  Ti  Ti12500  1  0.71428571  0.85714286  0.70740741  1
  Ti  Ti12501  1  0.71428571  0.92857143  0.70740741  1
  Ti  Ti12502  1  0.78571429  0.00000000  0.70740741  1
  Ti  Ti12503  1  0.78571429  0.07142857  0.70740741  1
  Ti  Ti12504  1  0.78571429  0.14285714  0.70740741  1
  Ti  Ti12505  1  0.78571429  0.21428571  0.70740741  1
  Ti  Ti12506  1  0.78571429  0.28571429  0.70740741  1
  Ti  Ti12507  1  0.78571429  0.35714286  0.70740741  1
  Ti  Ti12508  1  0.78571429  0.42857143  0.70740741  1
  Ti  Ti12509  1  0.78571429  0.50000000  0.70740741  1
  Ti  Ti12510  1  0.78571429  0.57142857  0.70740741  1
  Ti  Ti12511  1  0.78571429  0.64285714  0.70740741  1
  Ti  Ti12512  1  0.78571429  0.71428571  0.70740741  1
  Ti  Ti12513  1  0.78571429  0.78571429  0.70740741  1
  Ti  Ti12514  1  0.78571429  0.85714286  0.70740741  1
  Ti  Ti12515  1  0.78571429  0.92857143  0.70740741  1
  Ti  Ti12516  1  0.85714286  0.00000000  0.70740741  1
  Ti  Ti12517  1  0.85714286  0.07142857  0.70740741  1
  Ti  Ti12518  1  0.85714286  0.14285714  0.70740741  1
  Ti  Ti12519  1  0.85714286  0.21428571  0.70740741  1
  Ti  Ti12520  1  0.85714286  0.28571429  0.70740741  1
  Ti  Ti12521  1  0.85714286  0.35714286  0.70740741  1
  Ti  Ti12522  1  0.85714286  0.42857143  0.70740741  1
  Ti  Ti12523  1  0.85714286  0.50000000  0.70740741  1
  Ti  Ti12524  1  0.85714286  0.57142857  0.70740741  1
  Ti  Ti12525  1  0.85714286  0.64285714  0.70740741  1
  Ti  Ti12526  1  0.85714286  0.71428571  0.70740741  1
  Ti  Ti12527  1  0.85714286  0.78571429  0.70740741  1
  Ti  Ti12528  1  0.85714286  0.85714286  0.70740741  1
  Ti  Ti12529  1  0.85714286  0.92857143  0.70740741  1
  Ti  Ti12530  1  0.92857143  0.00000000  0.70740741  1
  Ti  Ti12531  1  0.92857143  0.07142857  0.70740741  1
  Ti  Ti12532  1  0.92857143  0.14285714  0.70740741  1
  Ti  Ti12533  1  0.92857143  0.21428571  0.70740741  1
  Ti  Ti12534  1  0.92857143  0.28571429  0.70740741  1
  Ti  Ti12535  1  0.92857143  0.35714286  0.70740741  1
  Ti  Ti12536  1  0.92857143  0.42857143  0.70740741  1
  Ti  Ti12537  1  0.92857143  0.50000000  0.70740741  1
  Ti  Ti12538  1  0.92857143  0.57142857  0.70740741  1
  Ti  Ti12539  1  0.92857143  0.64285714  0.70740741  1
  Ti  Ti12540  1  0.92857143  0.71428571  0.70740741  1
  Ti  Ti12541  1  0.92857143  0.78571429  0.70740741  1
  Ti  Ti12542  1  0.92857143  0.85714286  0.70740741  1
  Ti  Ti12543  1  0.92857143  0.92857143  0.70740741  1
  Ti  Ti12544  1  0.02380950  0.04761907  0.69629630  1
  Ti  Ti12545  1  0.02380950  0.11904764  0.69629630  1
  Ti  Ti12546  1  0.02380950  0.19047621  0.69629630  1
  Ti  Ti12547  1  0.02380950  0.26190479  0.69629630  1
  Ti  Ti12548  1  0.02380950  0.33333336  0.69629630  1
  Ti  Ti12549  1  0.02380950  0.40476193  0.69629630  1
  Ti  Ti12550  1  0.02380950  0.47619050  0.69629630  1
  Ti  Ti12551  1  0.02380950  0.54761907  0.69629630  1
  Ti  Ti12552  1  0.02380950  0.61904764  0.69629630  1
  Ti  Ti12553  1  0.02380950  0.69047621  0.69629630  1
  Ti  Ti12554  1  0.02380950  0.76190479  0.69629630  1
  Ti  Ti12555  1  0.02380950  0.83333336  0.69629630  1
  Ti  Ti12556  1  0.02380950  0.90476193  0.69629630  1
  Ti  Ti12557  1  0.02380950  0.97619050  0.69629630  1
  Ti  Ti12558  1  0.09523807  0.04761907  0.69629630  1
  Ti  Ti12559  1  0.09523807  0.11904764  0.69629630  1
  Ti  Ti12560  1  0.09523807  0.19047621  0.69629630  1
  Ti  Ti12561  1  0.09523807  0.26190479  0.69629630  1
  Ti  Ti12562  1  0.09523807  0.33333336  0.69629630  1
  Ti  Ti12563  1  0.09523807  0.40476193  0.69629630  1
  Ti  Ti12564  1  0.09523807  0.47619050  0.69629630  1
  Ti  Ti12565  1  0.09523807  0.54761907  0.69629630  1
  Ti  Ti12566  1  0.09523807  0.61904764  0.69629630  1
  Ti  Ti12567  1  0.09523807  0.69047621  0.69629630  1
  Ti  Ti12568  1  0.09523807  0.76190479  0.69629630  1
  Ti  Ti12569  1  0.09523807  0.83333336  0.69629630  1
  Ti  Ti12570  1  0.09523807  0.90476193  0.69629630  1
  Ti  Ti12571  1  0.09523807  0.97619050  0.69629630  1
  Ti  Ti12572  1  0.16666664  0.04761907  0.69629630  1
  Ti  Ti12573  1  0.16666664  0.11904764  0.69629630  1
  Ti  Ti12574  1  0.16666664  0.19047621  0.69629630  1
  Ti  Ti12575  1  0.16666664  0.26190479  0.69629630  1
  Ti  Ti12576  1  0.16666664  0.33333336  0.69629630  1
  Ti  Ti12577  1  0.16666664  0.40476193  0.69629630  1
  Ti  Ti12578  1  0.16666664  0.47619050  0.69629630  1
  Ti  Ti12579  1  0.16666664  0.54761907  0.69629630  1
  Ti  Ti12580  1  0.16666664  0.61904764  0.69629630  1
  Ti  Ti12581  1  0.16666664  0.69047621  0.69629630  1
  Ti  Ti12582  1  0.16666664  0.76190479  0.69629630  1
  Ti  Ti12583  1  0.16666664  0.83333336  0.69629630  1
  Ti  Ti12584  1  0.16666664  0.90476193  0.69629630  1
  Ti  Ti12585  1  0.16666664  0.97619050  0.69629630  1
  Ti  Ti12586  1  0.23809521  0.04761907  0.69629630  1
  Ti  Ti12587  1  0.23809521  0.11904764  0.69629630  1
  Ti  Ti12588  1  0.23809521  0.19047621  0.69629630  1
  Ti  Ti12589  1  0.23809521  0.26190479  0.69629630  1
  Ti  Ti12590  1  0.23809521  0.33333336  0.69629630  1
  Ti  Ti12591  1  0.23809521  0.40476193  0.69629630  1
  Ti  Ti12592  1  0.23809521  0.47619050  0.69629630  1
  Ti  Ti12593  1  0.23809521  0.54761907  0.69629630  1
  Ti  Ti12594  1  0.23809521  0.61904764  0.69629630  1
  Ti  Ti12595  1  0.23809521  0.69047621  0.69629630  1
  Ti  Ti12596  1  0.23809521  0.76190479  0.69629630  1
  Ti  Ti12597  1  0.23809521  0.83333336  0.69629630  1
  Ti  Ti12598  1  0.23809521  0.90476193  0.69629630  1
  Ti  Ti12599  1  0.23809521  0.97619050  0.69629630  1
  Ti  Ti12600  1  0.30952379  0.04761907  0.69629630  1
  Ti  Ti12601  1  0.30952379  0.11904764  0.69629630  1
  Ti  Ti12602  1  0.30952379  0.19047621  0.69629630  1
  Ti  Ti12603  1  0.30952379  0.26190479  0.69629630  1
  Ti  Ti12604  1  0.30952379  0.33333336  0.69629630  1
  Ti  Ti12605  1  0.30952379  0.40476193  0.69629630  1
  Ti  Ti12606  1  0.30952379  0.47619050  0.69629630  1
  Ti  Ti12607  1  0.30952379  0.54761907  0.69629630  1
  Ti  Ti12608  1  0.30952379  0.61904764  0.69629630  1
  Ti  Ti12609  1  0.30952379  0.69047621  0.69629630  1
  Ti  Ti12610  1  0.30952379  0.76190479  0.69629630  1
  Ti  Ti12611  1  0.30952379  0.83333336  0.69629630  1
  Ti  Ti12612  1  0.30952379  0.90476193  0.69629630  1
  Ti  Ti12613  1  0.30952379  0.97619050  0.69629630  1
  Ti  Ti12614  1  0.38095236  0.04761907  0.69629630  1
  Ti  Ti12615  1  0.38095236  0.11904764  0.69629630  1
  Ti  Ti12616  1  0.38095236  0.19047621  0.69629630  1
  Ti  Ti12617  1  0.38095236  0.26190479  0.69629630  1
  Ti  Ti12618  1  0.38095236  0.33333336  0.69629630  1
  Ti  Ti12619  1  0.38095236  0.40476193  0.69629630  1
  Ti  Ti12620  1  0.38095236  0.47619050  0.69629630  1
  Ti  Ti12621  1  0.38095236  0.54761907  0.69629630  1
  Ti  Ti12622  1  0.38095236  0.61904764  0.69629630  1
  Ti  Ti12623  1  0.38095236  0.69047621  0.69629630  1
  Ti  Ti12624  1  0.38095236  0.76190479  0.69629630  1
  Ti  Ti12625  1  0.38095236  0.83333336  0.69629630  1
  Ti  Ti12626  1  0.38095236  0.90476193  0.69629630  1
  Ti  Ti12627  1  0.38095236  0.97619050  0.69629630  1
  Ti  Ti12628  1  0.45238093  0.04761907  0.69629630  1
  Ti  Ti12629  1  0.45238093  0.11904764  0.69629630  1
  Ti  Ti12630  1  0.45238093  0.19047621  0.69629630  1
  Ti  Ti12631  1  0.45238093  0.26190479  0.69629630  1
  Ti  Ti12632  1  0.45238093  0.33333336  0.69629630  1
  Ti  Ti12633  1  0.45238093  0.40476193  0.69629630  1
  Ti  Ti12634  1  0.45238093  0.47619050  0.69629630  1
  Ti  Ti12635  1  0.45238093  0.54761907  0.69629630  1
  Ti  Ti12636  1  0.45238093  0.61904764  0.69629630  1
  Ti  Ti12637  1  0.45238093  0.69047621  0.69629630  1
  Ti  Ti12638  1  0.45238093  0.76190479  0.69629630  1
  Ti  Ti12639  1  0.45238093  0.83333336  0.69629630  1
  Ti  Ti12640  1  0.45238093  0.90476193  0.69629630  1
  Ti  Ti12641  1  0.45238093  0.97619050  0.69629630  1
  Ti  Ti12642  1  0.52380950  0.04761907  0.69629630  1
  Ti  Ti12643  1  0.52380950  0.11904764  0.69629630  1
  Ti  Ti12644  1  0.52380950  0.19047621  0.69629630  1
  Ti  Ti12645  1  0.52380950  0.26190479  0.69629630  1
  Ti  Ti12646  1  0.52380950  0.33333336  0.69629630  1
  Ti  Ti12647  1  0.52380950  0.40476193  0.69629630  1
  Ti  Ti12648  1  0.52380950  0.47619050  0.69629630  1
  Ti  Ti12649  1  0.52380950  0.54761907  0.69629630  1
  Ti  Ti12650  1  0.52380950  0.61904764  0.69629630  1
  Ti  Ti12651  1  0.52380950  0.69047621  0.69629630  1
  Ti  Ti12652  1  0.52380950  0.76190479  0.69629630  1
  Ti  Ti12653  1  0.52380950  0.83333336  0.69629630  1
  Ti  Ti12654  1  0.52380950  0.90476193  0.69629630  1
  Ti  Ti12655  1  0.52380950  0.97619050  0.69629630  1
  Ti  Ti12656  1  0.59523807  0.04761907  0.69629630  1
  Ti  Ti12657  1  0.59523807  0.11904764  0.69629630  1
  Ti  Ti12658  1  0.59523807  0.19047621  0.69629630  1
  Ti  Ti12659  1  0.59523807  0.26190479  0.69629630  1
  Ti  Ti12660  1  0.59523807  0.33333336  0.69629630  1
  Ti  Ti12661  1  0.59523807  0.40476193  0.69629630  1
  Ti  Ti12662  1  0.59523807  0.47619050  0.69629630  1
  Ti  Ti12663  1  0.59523807  0.54761907  0.69629630  1
  Ti  Ti12664  1  0.59523807  0.61904764  0.69629630  1
  Ti  Ti12665  1  0.59523807  0.69047621  0.69629630  1
  Ti  Ti12666  1  0.59523807  0.76190479  0.69629630  1
  Ti  Ti12667  1  0.59523807  0.83333336  0.69629630  1
  Ti  Ti12668  1  0.59523807  0.90476193  0.69629630  1
  Ti  Ti12669  1  0.59523807  0.97619050  0.69629630  1
  Ti  Ti12670  1  0.66666664  0.04761907  0.69629630  1
  Ti  Ti12671  1  0.66666664  0.11904764  0.69629630  1
  Ti  Ti12672  1  0.66666664  0.19047621  0.69629630  1
  Ti  Ti12673  1  0.66666664  0.26190479  0.69629630  1
  Ti  Ti12674  1  0.66666664  0.33333336  0.69629630  1
  Ti  Ti12675  1  0.66666664  0.40476193  0.69629630  1
  Ti  Ti12676  1  0.66666664  0.47619050  0.69629630  1
  Ti  Ti12677  1  0.66666664  0.54761907  0.69629630  1
  Ti  Ti12678  1  0.66666664  0.61904764  0.69629630  1
  Ti  Ti12679  1  0.66666664  0.69047621  0.69629630  1
  Ti  Ti12680  1  0.66666664  0.76190479  0.69629630  1
  Ti  Ti12681  1  0.66666664  0.83333336  0.69629630  1
  Ti  Ti12682  1  0.66666664  0.90476193  0.69629630  1
  Ti  Ti12683  1  0.66666664  0.97619050  0.69629630  1
  Ti  Ti12684  1  0.73809521  0.04761907  0.69629630  1
  Ti  Ti12685  1  0.73809521  0.11904764  0.69629630  1
  Ti  Ti12686  1  0.73809521  0.19047621  0.69629630  1
  Ti  Ti12687  1  0.73809521  0.26190479  0.69629630  1
  Ti  Ti12688  1  0.73809521  0.33333336  0.69629630  1
  Ti  Ti12689  1  0.73809521  0.40476193  0.69629630  1
  Ti  Ti12690  1  0.73809521  0.47619050  0.69629630  1
  Ti  Ti12691  1  0.73809521  0.54761907  0.69629630  1
  Ti  Ti12692  1  0.73809521  0.61904764  0.69629630  1
  Ti  Ti12693  1  0.73809521  0.69047621  0.69629630  1
  Ti  Ti12694  1  0.73809521  0.76190479  0.69629630  1
  Ti  Ti12695  1  0.73809521  0.83333336  0.69629630  1
  Ti  Ti12696  1  0.73809521  0.90476193  0.69629630  1
  Ti  Ti12697  1  0.73809521  0.97619050  0.69629630  1
  Ti  Ti12698  1  0.80952379  0.04761907  0.69629630  1
  Ti  Ti12699  1  0.80952379  0.11904764  0.69629630  1
  Ti  Ti12700  1  0.80952379  0.19047621  0.69629630  1
  Ti  Ti12701  1  0.80952379  0.26190479  0.69629630  1
  Ti  Ti12702  1  0.80952379  0.33333336  0.69629630  1
  Ti  Ti12703  1  0.80952379  0.40476193  0.69629630  1
  Ti  Ti12704  1  0.80952379  0.47619050  0.69629630  1
  Ti  Ti12705  1  0.80952379  0.54761907  0.69629630  1
  Ti  Ti12706  1  0.80952379  0.61904764  0.69629630  1
  Ti  Ti12707  1  0.80952379  0.69047621  0.69629630  1
  Ti  Ti12708  1  0.80952379  0.76190479  0.69629630  1
  Ti  Ti12709  1  0.80952379  0.83333336  0.69629630  1
  Ti  Ti12710  1  0.80952379  0.90476193  0.69629630  1
  Ti  Ti12711  1  0.80952379  0.97619050  0.69629630  1
  Ti  Ti12712  1  0.88095236  0.04761907  0.69629630  1
  Ti  Ti12713  1  0.88095236  0.11904764  0.69629630  1
  Ti  Ti12714  1  0.88095236  0.19047621  0.69629630  1
  Ti  Ti12715  1  0.88095236  0.26190479  0.69629630  1
  Ti  Ti12716  1  0.88095236  0.33333336  0.69629630  1
  Ti  Ti12717  1  0.88095236  0.40476193  0.69629630  1
  Ti  Ti12718  1  0.88095236  0.47619050  0.69629630  1
  Ti  Ti12719  1  0.88095236  0.54761907  0.69629630  1
  Ti  Ti12720  1  0.88095236  0.61904764  0.69629630  1
  Ti  Ti12721  1  0.88095236  0.69047621  0.69629630  1
  Ti  Ti12722  1  0.88095236  0.76190479  0.69629630  1
  Ti  Ti12723  1  0.88095236  0.83333336  0.69629630  1
  Ti  Ti12724  1  0.88095236  0.90476193  0.69629630  1
  Ti  Ti12725  1  0.88095236  0.97619050  0.69629630  1
  Ti  Ti12726  1  0.95238093  0.04761907  0.69629630  1
  Ti  Ti12727  1  0.95238093  0.11904764  0.69629630  1
  Ti  Ti12728  1  0.95238093  0.19047621  0.69629630  1
  Ti  Ti12729  1  0.95238093  0.26190479  0.69629630  1
  Ti  Ti12730  1  0.95238093  0.33333336  0.69629630  1
  Ti  Ti12731  1  0.95238093  0.40476193  0.69629630  1
  Ti  Ti12732  1  0.95238093  0.47619050  0.69629630  1
  Ti  Ti12733  1  0.95238093  0.54761907  0.69629630  1
  Ti  Ti12734  1  0.95238093  0.61904764  0.69629630  1
  Ti  Ti12735  1  0.95238093  0.69047621  0.69629630  1
  Ti  Ti12736  1  0.95238093  0.76190479  0.69629630  1
  Ti  Ti12737  1  0.95238093  0.83333336  0.69629630  1
  Ti  Ti12738  1  0.95238093  0.90476193  0.69629630  1
  Ti  Ti12739  1  0.95238093  0.97619050  0.69629630  1
  Ti  Ti12740  1  0.04761907  0.02380950  0.69629630  1
  Ti  Ti12741  1  0.04761907  0.09523807  0.69629630  1
  Ti  Ti12742  1  0.04761907  0.16666664  0.69629630  1
  Ti  Ti12743  1  0.04761907  0.23809521  0.69629630  1
  Ti  Ti12744  1  0.04761907  0.30952379  0.69629630  1
  Ti  Ti12745  1  0.04761907  0.38095236  0.69629630  1
  Ti  Ti12746  1  0.04761907  0.45238093  0.69629630  1
  Ti  Ti12747  1  0.04761907  0.52380950  0.69629630  1
  Ti  Ti12748  1  0.04761907  0.59523807  0.69629630  1
  Ti  Ti12749  1  0.04761907  0.66666664  0.69629630  1
  Ti  Ti12750  1  0.04761907  0.73809521  0.69629630  1
  Ti  Ti12751  1  0.04761907  0.80952379  0.69629630  1
  Ti  Ti12752  1  0.04761907  0.88095236  0.69629630  1
  Ti  Ti12753  1  0.04761907  0.95238093  0.69629630  1
  Ti  Ti12754  1  0.11904764  0.02380950  0.69629630  1
  Ti  Ti12755  1  0.11904764  0.09523807  0.69629630  1
  Ti  Ti12756  1  0.11904764  0.16666664  0.69629630  1
  Ti  Ti12757  1  0.11904764  0.23809521  0.69629630  1
  Ti  Ti12758  1  0.11904764  0.30952379  0.69629630  1
  Ti  Ti12759  1  0.11904764  0.38095236  0.69629630  1
  Ti  Ti12760  1  0.11904764  0.45238093  0.69629630  1
  Ti  Ti12761  1  0.11904764  0.52380950  0.69629630  1
  Ti  Ti12762  1  0.11904764  0.59523807  0.69629630  1
  Ti  Ti12763  1  0.11904764  0.66666664  0.69629630  1
  Ti  Ti12764  1  0.11904764  0.73809521  0.69629630  1
  Ti  Ti12765  1  0.11904764  0.80952379  0.69629630  1
  Ti  Ti12766  1  0.11904764  0.88095236  0.69629630  1
  Ti  Ti12767  1  0.11904764  0.95238093  0.69629630  1
  Ti  Ti12768  1  0.19047621  0.02380950  0.69629630  1
  Ti  Ti12769  1  0.19047621  0.09523807  0.69629630  1
  Ti  Ti12770  1  0.19047621  0.16666664  0.69629630  1
  Ti  Ti12771  1  0.19047621  0.23809521  0.69629630  1
  Ti  Ti12772  1  0.19047621  0.30952379  0.69629630  1
  Ti  Ti12773  1  0.19047621  0.38095236  0.69629630  1
  Ti  Ti12774  1  0.19047621  0.45238093  0.69629630  1
  Ti  Ti12775  1  0.19047621  0.52380950  0.69629630  1
  Ti  Ti12776  1  0.19047621  0.59523807  0.69629630  1
  Ti  Ti12777  1  0.19047621  0.66666664  0.69629630  1
  Ti  Ti12778  1  0.19047621  0.73809521  0.69629630  1
  Ti  Ti12779  1  0.19047621  0.80952379  0.69629630  1
  Ti  Ti12780  1  0.19047621  0.88095236  0.69629630  1
  Ti  Ti12781  1  0.19047621  0.95238093  0.69629630  1
  Ti  Ti12782  1  0.26190479  0.02380950  0.69629630  1
  Ti  Ti12783  1  0.26190479  0.09523807  0.69629630  1
  Ti  Ti12784  1  0.26190479  0.16666664  0.69629630  1
  Ti  Ti12785  1  0.26190479  0.23809521  0.69629630  1
  Ti  Ti12786  1  0.26190479  0.30952379  0.69629630  1
  Ti  Ti12787  1  0.26190479  0.38095236  0.69629630  1
  Ti  Ti12788  1  0.26190479  0.45238093  0.69629630  1
  Ti  Ti12789  1  0.26190479  0.52380950  0.69629630  1
  Ti  Ti12790  1  0.26190479  0.59523807  0.69629630  1
  Ti  Ti12791  1  0.26190479  0.66666664  0.69629630  1
  Ti  Ti12792  1  0.26190479  0.73809521  0.69629630  1
  Ti  Ti12793  1  0.26190479  0.80952379  0.69629630  1
  Ti  Ti12794  1  0.26190479  0.88095236  0.69629630  1
  Ti  Ti12795  1  0.26190479  0.95238093  0.69629630  1
  Ti  Ti12796  1  0.33333336  0.02380950  0.69629630  1
  Ti  Ti12797  1  0.33333336  0.09523807  0.69629630  1
  Ti  Ti12798  1  0.33333336  0.16666664  0.69629630  1
  Ti  Ti12799  1  0.33333336  0.23809521  0.69629630  1
  Ti  Ti12800  1  0.33333336  0.30952379  0.69629630  1
  Ti  Ti12801  1  0.33333336  0.38095236  0.69629630  1
  Ti  Ti12802  1  0.33333336  0.45238093  0.69629630  1
  Ti  Ti12803  1  0.33333336  0.52380950  0.69629630  1
  Ti  Ti12804  1  0.33333336  0.59523807  0.69629630  1
  Ti  Ti12805  1  0.33333336  0.66666664  0.69629630  1
  Ti  Ti12806  1  0.33333336  0.73809521  0.69629630  1
  Ti  Ti12807  1  0.33333336  0.80952379  0.69629630  1
  Ti  Ti12808  1  0.33333336  0.88095236  0.69629630  1
  Ti  Ti12809  1  0.33333336  0.95238093  0.69629630  1
  Ti  Ti12810  1  0.40476193  0.02380950  0.69629630  1
  Ti  Ti12811  1  0.40476193  0.09523807  0.69629630  1
  Ti  Ti12812  1  0.40476193  0.16666664  0.69629630  1
  Ti  Ti12813  1  0.40476193  0.23809521  0.69629630  1
  Ti  Ti12814  1  0.40476193  0.30952379  0.69629630  1
  Ti  Ti12815  1  0.40476193  0.38095236  0.69629630  1
  Ti  Ti12816  1  0.40476193  0.45238093  0.69629630  1
  Ti  Ti12817  1  0.40476193  0.52380950  0.69629630  1
  Ti  Ti12818  1  0.40476193  0.59523807  0.69629630  1
  Ti  Ti12819  1  0.40476193  0.66666664  0.69629630  1
  Ti  Ti12820  1  0.40476193  0.73809521  0.69629630  1
  Ti  Ti12821  1  0.40476193  0.80952379  0.69629630  1
  Ti  Ti12822  1  0.40476193  0.88095236  0.69629630  1
  Ti  Ti12823  1  0.40476193  0.95238093  0.69629630  1
  Ti  Ti12824  1  0.47619050  0.02380950  0.69629630  1
  Ti  Ti12825  1  0.47619050  0.09523807  0.69629630  1
  Ti  Ti12826  1  0.47619050  0.16666664  0.69629630  1
  Ti  Ti12827  1  0.47619050  0.23809521  0.69629630  1
  Ti  Ti12828  1  0.47619050  0.30952379  0.69629630  1
  Ti  Ti12829  1  0.47619050  0.38095236  0.69629630  1
  Ti  Ti12830  1  0.47619050  0.45238093  0.69629630  1
  Ti  Ti12831  1  0.47619050  0.52380950  0.69629630  1
  Ti  Ti12832  1  0.47619050  0.59523807  0.69629630  1
  Ti  Ti12833  1  0.47619050  0.66666664  0.69629630  1
  Ti  Ti12834  1  0.47619050  0.73809521  0.69629630  1
  Ti  Ti12835  1  0.47619050  0.80952379  0.69629630  1
  Ti  Ti12836  1  0.47619050  0.88095236  0.69629630  1
  Ti  Ti12837  1  0.47619050  0.95238093  0.69629630  1
  Ti  Ti12838  1  0.54761907  0.02380950  0.69629630  1
  Ti  Ti12839  1  0.54761907  0.09523807  0.69629630  1
  Ti  Ti12840  1  0.54761907  0.16666664  0.69629630  1
  Ti  Ti12841  1  0.54761907  0.23809521  0.69629630  1
  Ti  Ti12842  1  0.54761907  0.30952379  0.69629630  1
  Ti  Ti12843  1  0.54761907  0.38095236  0.69629630  1
  Ti  Ti12844  1  0.54761907  0.45238093  0.69629630  1
  Ti  Ti12845  1  0.54761907  0.52380950  0.69629630  1
  Ti  Ti12846  1  0.54761907  0.59523807  0.69629630  1
  Ti  Ti12847  1  0.54761907  0.66666664  0.69629630  1
  Ti  Ti12848  1  0.54761907  0.73809521  0.69629630  1
  Ti  Ti12849  1  0.54761907  0.80952379  0.69629630  1
  Ti  Ti12850  1  0.54761907  0.88095236  0.69629630  1
  Ti  Ti12851  1  0.54761907  0.95238093  0.69629630  1
  Ti  Ti12852  1  0.61904764  0.02380950  0.69629630  1
  Ti  Ti12853  1  0.61904764  0.09523807  0.69629630  1
  Ti  Ti12854  1  0.61904764  0.16666664  0.69629630  1
  Ti  Ti12855  1  0.61904764  0.23809521  0.69629630  1
  Ti  Ti12856  1  0.61904764  0.30952379  0.69629630  1
  Ti  Ti12857  1  0.61904764  0.38095236  0.69629630  1
  Ti  Ti12858  1  0.61904764  0.45238093  0.69629630  1
  Ti  Ti12859  1  0.61904764  0.52380950  0.69629630  1
  Ti  Ti12860  1  0.61904764  0.59523807  0.69629630  1
  Ti  Ti12861  1  0.61904764  0.66666664  0.69629630  1
  Ti  Ti12862  1  0.61904764  0.73809521  0.69629630  1
  Ti  Ti12863  1  0.61904764  0.80952379  0.69629630  1
  Ti  Ti12864  1  0.61904764  0.88095236  0.69629630  1
  Ti  Ti12865  1  0.61904764  0.95238093  0.69629630  1
  Ti  Ti12866  1  0.69047621  0.02380950  0.69629630  1
  Ti  Ti12867  1  0.69047621  0.09523807  0.69629630  1
  Ti  Ti12868  1  0.69047621  0.16666664  0.69629630  1
  Ti  Ti12869  1  0.69047621  0.23809521  0.69629630  1
  Ti  Ti12870  1  0.69047621  0.30952379  0.69629630  1
  Ti  Ti12871  1  0.69047621  0.38095236  0.69629630  1
  Ti  Ti12872  1  0.69047621  0.45238093  0.69629630  1
  Ti  Ti12873  1  0.69047621  0.52380950  0.69629630  1
  Ti  Ti12874  1  0.69047621  0.59523807  0.69629630  1
  Ti  Ti12875  1  0.69047621  0.66666664  0.69629630  1
  Ti  Ti12876  1  0.69047621  0.73809521  0.69629630  1
  Ti  Ti12877  1  0.69047621  0.80952379  0.69629630  1
  Ti  Ti12878  1  0.69047621  0.88095236  0.69629630  1
  Ti  Ti12879  1  0.69047621  0.95238093  0.69629630  1
  Ti  Ti12880  1  0.76190479  0.02380950  0.69629630  1
  Ti  Ti12881  1  0.76190479  0.09523807  0.69629630  1
  Ti  Ti12882  1  0.76190479  0.16666664  0.69629630  1
  Ti  Ti12883  1  0.76190479  0.23809521  0.69629630  1
  Ti  Ti12884  1  0.76190479  0.30952379  0.69629630  1
  Ti  Ti12885  1  0.76190479  0.38095236  0.69629630  1
  Ti  Ti12886  1  0.76190479  0.45238093  0.69629630  1
  Ti  Ti12887  1  0.76190479  0.52380950  0.69629630  1
  Ti  Ti12888  1  0.76190479  0.59523807  0.69629630  1
  Ti  Ti12889  1  0.76190479  0.66666664  0.69629630  1
  Ti  Ti12890  1  0.76190479  0.73809521  0.69629630  1
  Ti  Ti12891  1  0.76190479  0.80952379  0.69629630  1
  Ti  Ti12892  1  0.76190479  0.88095236  0.69629630  1
  Ti  Ti12893  1  0.76190479  0.95238093  0.69629630  1
  Ti  Ti12894  1  0.83333336  0.02380950  0.69629630  1
  Ti  Ti12895  1  0.83333336  0.09523807  0.69629630  1
  Ti  Ti12896  1  0.83333336  0.16666664  0.69629630  1
  Ti  Ti12897  1  0.83333336  0.23809521  0.69629630  1
  Ti  Ti12898  1  0.83333336  0.30952379  0.69629630  1
  Ti  Ti12899  1  0.83333336  0.38095236  0.69629630  1
  Ti  Ti12900  1  0.83333336  0.45238093  0.69629630  1
  Ti  Ti12901  1  0.83333336  0.52380950  0.69629630  1
  Ti  Ti12902  1  0.83333336  0.59523807  0.69629630  1
  Ti  Ti12903  1  0.83333336  0.66666664  0.69629630  1
  Ti  Ti12904  1  0.83333336  0.73809521  0.69629630  1
  Ti  Ti12905  1  0.83333336  0.80952379  0.69629630  1
  Ti  Ti12906  1  0.83333336  0.88095236  0.69629630  1
  Ti  Ti12907  1  0.83333336  0.95238093  0.69629630  1
  Ti  Ti12908  1  0.90476193  0.02380950  0.69629630  1
  Ti  Ti12909  1  0.90476193  0.09523807  0.69629630  1
  Ti  Ti12910  1  0.90476193  0.16666664  0.69629630  1
  Ti  Ti12911  1  0.90476193  0.23809521  0.69629630  1
  Ti  Ti12912  1  0.90476193  0.30952379  0.69629630  1
  Ti  Ti12913  1  0.90476193  0.38095236  0.69629630  1
  Ti  Ti12914  1  0.90476193  0.45238093  0.69629630  1
  Ti  Ti12915  1  0.90476193  0.52380950  0.69629630  1
  Ti  Ti12916  1  0.90476193  0.59523807  0.69629630  1
  Ti  Ti12917  1  0.90476193  0.66666664  0.69629630  1
  Ti  Ti12918  1  0.90476193  0.73809521  0.69629630  1
  Ti  Ti12919  1  0.90476193  0.80952379  0.69629630  1
  Ti  Ti12920  1  0.90476193  0.88095236  0.69629630  1
  Ti  Ti12921  1  0.90476193  0.95238093  0.69629630  1
  Ti  Ti12922  1  0.97619050  0.02380950  0.69629630  1
  Ti  Ti12923  1  0.97619050  0.09523807  0.69629630  1
  Ti  Ti12924  1  0.97619050  0.16666664  0.69629630  1
  Ti  Ti12925  1  0.97619050  0.23809521  0.69629630  1
  Ti  Ti12926  1  0.97619050  0.30952379  0.69629630  1
  Ti  Ti12927  1  0.97619050  0.38095236  0.69629630  1
  Ti  Ti12928  1  0.97619050  0.45238093  0.69629630  1
  Ti  Ti12929  1  0.97619050  0.52380950  0.69629630  1
  Ti  Ti12930  1  0.97619050  0.59523807  0.69629630  1
  Ti  Ti12931  1  0.97619050  0.66666664  0.69629630  1
  Ti  Ti12932  1  0.97619050  0.73809521  0.69629630  1
  Ti  Ti12933  1  0.97619050  0.80952379  0.69629630  1
  Ti  Ti12934  1  0.97619050  0.88095236  0.69629630  1
  Ti  Ti12935  1  0.97619050  0.95238093  0.69629630  1
  Ti  Ti12936  1  0.00000000  0.00000000  0.72962963  1
  Ti  Ti12937  1  0.00000000  0.07142857  0.72962963  1
  Ti  Ti12938  1  0.00000000  0.14285714  0.72962963  1
  Ti  Ti12939  1  0.00000000  0.21428571  0.72962963  1
  Ti  Ti12940  1  0.00000000  0.28571429  0.72962963  1
  Ti  Ti12941  1  0.00000000  0.35714286  0.72962963  1
  Ti  Ti12942  1  0.00000000  0.42857143  0.72962963  1
  Ti  Ti12943  1  0.00000000  0.50000000  0.72962963  1
  Ti  Ti12944  1  0.00000000  0.57142857  0.72962963  1
  Ti  Ti12945  1  0.00000000  0.64285714  0.72962963  1
  Ti  Ti12946  1  0.00000000  0.71428571  0.72962963  1
  Ti  Ti12947  1  1.00000000  0.78571429  0.72962963  1
  Ti  Ti12948  1  0.00000000  0.85714286  0.72962963  1
  Ti  Ti12949  1  0.00000000  0.92857143  0.72962963  1
  Ti  Ti12950  1  0.07142857  0.00000000  0.72962963  1
  Ti  Ti12951  1  0.07142857  0.07142857  0.72962963  1
  Ti  Ti12952  1  0.07142857  0.14285714  0.72962963  1
  Ti  Ti12953  1  0.07142857  0.21428571  0.72962963  1
  Ti  Ti12954  1  0.07142857  0.28571429  0.72962963  1
  Ti  Ti12955  1  0.07142857  0.35714286  0.72962963  1
  Ti  Ti12956  1  0.07142857  0.42857143  0.72962963  1
  Ti  Ti12957  1  0.07142857  0.50000000  0.72962963  1
  Ti  Ti12958  1  0.07142857  0.57142857  0.72962963  1
  Ti  Ti12959  1  0.07142857  0.64285714  0.72962963  1
  Ti  Ti12960  1  0.07142857  0.71428571  0.72962963  1
  Ti  Ti12961  1  0.07142857  0.78571429  0.72962963  1
  Ti  Ti12962  1  0.07142857  0.85714286  0.72962963  1
  Ti  Ti12963  1  0.07142857  0.92857143  0.72962963  1
  Ti  Ti12964  1  0.14285714  0.00000000  0.72962963  1
  Ti  Ti12965  1  0.14285714  0.07142857  0.72962963  1
  Ti  Ti12966  1  0.14285714  0.14285714  0.72962963  1
  Ti  Ti12967  1  0.14285714  0.21428571  0.72962963  1
  Ti  Ti12968  1  0.14285714  0.28571429  0.72962963  1
  Ti  Ti12969  1  0.14285714  0.35714286  0.72962963  1
  Ti  Ti12970  1  0.14285714  0.42857143  0.72962963  1
  Ti  Ti12971  1  0.14285714  0.50000000  0.72962963  1
  Ti  Ti12972  1  0.14285714  0.57142857  0.72962963  1
  Ti  Ti12973  1  0.14285714  0.64285714  0.72962963  1
  Ti  Ti12974  1  0.14285714  0.71428571  0.72962963  1
  Ti  Ti12975  1  0.14285714  0.78571429  0.72962963  1
  Ti  Ti12976  1  0.14285714  0.85714286  0.72962963  1
  Ti  Ti12977  1  0.14285714  0.92857143  0.72962963  1
  Ti  Ti12978  1  0.21428571  0.00000000  0.72962963  1
  Ti  Ti12979  1  0.21428571  0.07142857  0.72962963  1
  Ti  Ti12980  1  0.21428571  0.14285714  0.72962963  1
  Ti  Ti12981  1  0.21428571  0.21428571  0.72962963  1
  Ti  Ti12982  1  0.21428571  0.28571429  0.72962963  1
  Ti  Ti12983  1  0.21428571  0.35714286  0.72962963  1
  Ti  Ti12984  1  0.21428571  0.42857143  0.72962963  1
  Ti  Ti12985  1  0.21428571  0.50000000  0.72962963  1
  Ti  Ti12986  1  0.21428571  0.57142857  0.72962963  1
  Ti  Ti12987  1  0.21428571  0.64285714  0.72962963  1
  Ti  Ti12988  1  0.21428571  0.71428571  0.72962963  1
  Ti  Ti12989  1  0.21428571  0.78571429  0.72962963  1
  Ti  Ti12990  1  0.21428571  0.85714286  0.72962963  1
  Ti  Ti12991  1  0.21428571  0.92857143  0.72962963  1
  Ti  Ti12992  1  0.28571429  0.00000000  0.72962963  1
  Ti  Ti12993  1  0.28571429  0.07142857  0.72962963  1
  Ti  Ti12994  1  0.28571429  0.14285714  0.72962963  1
  Ti  Ti12995  1  0.28571429  0.21428571  0.72962963  1
  Ti  Ti12996  1  0.28571429  0.28571429  0.72962963  1
  Ti  Ti12997  1  0.28571429  0.35714286  0.72962963  1
  Ti  Ti12998  1  0.28571429  0.42857143  0.72962963  1
  Ti  Ti12999  1  0.28571429  0.50000000  0.72962963  1
  Ti  Ti13000  1  0.28571429  0.57142857  0.72962963  1
  Ti  Ti13001  1  0.28571429  0.64285714  0.72962963  1
  Ti  Ti13002  1  0.28571429  0.71428571  0.72962963  1
  Ti  Ti13003  1  0.28571429  0.78571429  0.72962963  1
  Ti  Ti13004  1  0.28571429  0.85714286  0.72962963  1
  Ti  Ti13005  1  0.28571429  0.92857143  0.72962963  1
  Ti  Ti13006  1  0.35714286  0.00000000  0.72962963  1
  Ti  Ti13007  1  0.35714286  0.07142857  0.72962963  1
  Ti  Ti13008  1  0.35714286  0.14285714  0.72962963  1
  Ti  Ti13009  1  0.35714286  0.21428571  0.72962963  1
  Ti  Ti13010  1  0.35714286  0.28571429  0.72962963  1
  Ti  Ti13011  1  0.35714286  0.35714286  0.72962963  1
  Ti  Ti13012  1  0.35714286  0.42857143  0.72962963  1
  Ti  Ti13013  1  0.35714286  0.50000000  0.72962963  1
  Ti  Ti13014  1  0.35714286  0.57142857  0.72962963  1
  Ti  Ti13015  1  0.35714286  0.64285714  0.72962963  1
  Ti  Ti13016  1  0.35714286  0.71428571  0.72962963  1
  Ti  Ti13017  1  0.35714286  0.78571429  0.72962963  1
  Ti  Ti13018  1  0.35714286  0.85714286  0.72962963  1
  Ti  Ti13019  1  0.35714286  0.92857143  0.72962963  1
  Ti  Ti13020  1  0.42857143  0.00000000  0.72962963  1
  Ti  Ti13021  1  0.42857143  0.07142857  0.72962963  1
  Ti  Ti13022  1  0.42857143  0.14285714  0.72962963  1
  Ti  Ti13023  1  0.42857143  0.21428571  0.72962963  1
  Ti  Ti13024  1  0.42857143  0.28571429  0.72962963  1
  Ti  Ti13025  1  0.42857143  0.35714286  0.72962963  1
  Ti  Ti13026  1  0.42857143  0.42857143  0.72962963  1
  Ti  Ti13027  1  0.42857143  0.50000000  0.72962963  1
  Ti  Ti13028  1  0.42857143  0.57142857  0.72962963  1
  Ti  Ti13029  1  0.42857143  0.64285714  0.72962963  1
  Ti  Ti13030  1  0.42857143  0.71428571  0.72962963  1
  Ti  Ti13031  1  0.42857143  0.78571429  0.72962963  1
  Ti  Ti13032  1  0.42857143  0.85714286  0.72962963  1
  Ti  Ti13033  1  0.42857143  0.92857143  0.72962963  1
  Ti  Ti13034  1  0.50000000  0.00000000  0.72962963  1
  Ti  Ti13035  1  0.50000000  0.07142857  0.72962963  1
  Ti  Ti13036  1  0.50000000  0.14285714  0.72962963  1
  Ti  Ti13037  1  0.50000000  0.21428571  0.72962963  1
  Ti  Ti13038  1  0.50000000  0.28571429  0.72962963  1
  Ti  Ti13039  1  0.50000000  0.35714286  0.72962963  1
  Ti  Ti13040  1  0.50000000  0.42857143  0.72962963  1
  Ti  Ti13041  1  0.50000000  0.50000000  0.72962963  1
  Ti  Ti13042  1  0.50000000  0.57142857  0.72962963  1
  Ti  Ti13043  1  0.50000000  0.64285714  0.72962963  1
  Ti  Ti13044  1  0.50000000  0.71428571  0.72962963  1
  Ti  Ti13045  1  0.50000000  0.78571429  0.72962963  1
  Ti  Ti13046  1  0.50000000  0.85714286  0.72962963  1
  Ti  Ti13047  1  0.50000000  0.92857143  0.72962963  1
  Ti  Ti13048  1  0.57142857  0.00000000  0.72962963  1
  Ti  Ti13049  1  0.57142857  0.07142857  0.72962963  1
  Ti  Ti13050  1  0.57142857  0.14285714  0.72962963  1
  Ti  Ti13051  1  0.57142857  0.21428571  0.72962963  1
  Ti  Ti13052  1  0.57142857  0.28571429  0.72962963  1
  Ti  Ti13053  1  0.57142857  0.35714286  0.72962963  1
  Ti  Ti13054  1  0.57142857  0.42857143  0.72962963  1
  Ti  Ti13055  1  0.57142857  0.50000000  0.72962963  1
  Ti  Ti13056  1  0.57142857  0.57142857  0.72962963  1
  Ti  Ti13057  1  0.57142857  0.64285714  0.72962963  1
  Ti  Ti13058  1  0.57142857  0.71428571  0.72962963  1
  Ti  Ti13059  1  0.57142857  0.78571429  0.72962963  1
  Ti  Ti13060  1  0.57142857  0.85714286  0.72962963  1
  Ti  Ti13061  1  0.57142857  0.92857143  0.72962963  1
  Ti  Ti13062  1  0.64285714  0.00000000  0.72962963  1
  Ti  Ti13063  1  0.64285714  0.07142857  0.72962963  1
  Ti  Ti13064  1  0.64285714  0.14285714  0.72962963  1
  Ti  Ti13065  1  0.64285714  0.21428571  0.72962963  1
  Ti  Ti13066  1  0.64285714  0.28571429  0.72962963  1
  Ti  Ti13067  1  0.64285714  0.35714286  0.72962963  1
  Ti  Ti13068  1  0.64285714  0.42857143  0.72962963  1
  Ti  Ti13069  1  0.64285714  0.50000000  0.72962963  1
  Ti  Ti13070  1  0.64285714  0.57142857  0.72962963  1
  Ti  Ti13071  1  0.64285714  0.64285714  0.72962963  1
  Ti  Ti13072  1  0.64285714  0.71428571  0.72962963  1
  Ti  Ti13073  1  0.64285714  0.78571429  0.72962963  1
  Ti  Ti13074  1  0.64285714  0.85714286  0.72962963  1
  Ti  Ti13075  1  0.64285714  0.92857143  0.72962963  1
  Ti  Ti13076  1  0.71428571  0.00000000  0.72962963  1
  Ti  Ti13077  1  0.71428571  0.07142857  0.72962963  1
  Ti  Ti13078  1  0.71428571  0.14285714  0.72962963  1
  Ti  Ti13079  1  0.71428571  0.21428571  0.72962963  1
  Ti  Ti13080  1  0.71428571  0.28571429  0.72962963  1
  Ti  Ti13081  1  0.71428571  0.35714286  0.72962963  1
  Ti  Ti13082  1  0.71428571  0.42857143  0.72962963  1
  Ti  Ti13083  1  0.71428571  0.50000000  0.72962963  1
  Ti  Ti13084  1  0.71428571  0.57142857  0.72962963  1
  Ti  Ti13085  1  0.71428571  0.64285714  0.72962963  1
  Ti  Ti13086  1  0.71428571  0.71428571  0.72962963  1
  Ti  Ti13087  1  0.71428571  0.78571429  0.72962963  1
  Ti  Ti13088  1  0.71428571  0.85714286  0.72962963  1
  Ti  Ti13089  1  0.71428571  0.92857143  0.72962963  1
  Ti  Ti13090  1  0.78571429  0.00000000  0.72962963  1
  Ti  Ti13091  1  0.78571429  0.07142857  0.72962963  1
  Ti  Ti13092  1  0.78571429  0.14285714  0.72962963  1
  Ti  Ti13093  1  0.78571429  0.21428571  0.72962963  1
  Ti  Ti13094  1  0.78571429  0.28571429  0.72962963  1
  Ti  Ti13095  1  0.78571429  0.35714286  0.72962963  1
  Ti  Ti13096  1  0.78571429  0.42857143  0.72962963  1
  Ti  Ti13097  1  0.78571429  0.50000000  0.72962963  1
  Ti  Ti13098  1  0.78571429  0.57142857  0.72962963  1
  Ti  Ti13099  1  0.78571429  0.64285714  0.72962963  1
  Ti  Ti13100  1  0.78571429  0.71428571  0.72962963  1
  Ti  Ti13101  1  0.78571429  0.78571429  0.72962963  1
  Ti  Ti13102  1  0.78571429  0.85714286  0.72962963  1
  Ti  Ti13103  1  0.78571429  0.92857143  0.72962963  1
  Ti  Ti13104  1  0.85714286  0.00000000  0.72962963  1
  Ti  Ti13105  1  0.85714286  0.07142857  0.72962963  1
  Ti  Ti13106  1  0.85714286  0.14285714  0.72962963  1
  Ti  Ti13107  1  0.85714286  0.21428571  0.72962963  1
  Ti  Ti13108  1  0.85714286  0.28571429  0.72962963  1
  Ti  Ti13109  1  0.85714286  0.35714286  0.72962963  1
  Ti  Ti13110  1  0.85714286  0.42857143  0.72962963  1
  Ti  Ti13111  1  0.85714286  0.50000000  0.72962963  1
  Ti  Ti13112  1  0.85714286  0.57142857  0.72962963  1
  Ti  Ti13113  1  0.85714286  0.64285714  0.72962963  1
  Ti  Ti13114  1  0.85714286  0.71428571  0.72962963  1
  Ti  Ti13115  1  0.85714286  0.78571429  0.72962963  1
  Ti  Ti13116  1  0.85714286  0.85714286  0.72962963  1
  Ti  Ti13117  1  0.85714286  0.92857143  0.72962963  1
  Ti  Ti13118  1  0.92857143  0.00000000  0.72962963  1
  Ti  Ti13119  1  0.92857143  0.07142857  0.72962963  1
  Ti  Ti13120  1  0.92857143  0.14285714  0.72962963  1
  Ti  Ti13121  1  0.92857143  0.21428571  0.72962963  1
  Ti  Ti13122  1  0.92857143  0.28571429  0.72962963  1
  Ti  Ti13123  1  0.92857143  0.35714286  0.72962963  1
  Ti  Ti13124  1  0.92857143  0.42857143  0.72962963  1
  Ti  Ti13125  1  0.92857143  0.50000000  0.72962963  1
  Ti  Ti13126  1  0.92857143  0.57142857  0.72962963  1
  Ti  Ti13127  1  0.92857143  0.64285714  0.72962963  1
  Ti  Ti13128  1  0.92857143  0.71428571  0.72962963  1
  Ti  Ti13129  1  0.92857143  0.78571429  0.72962963  1
  Ti  Ti13130  1  0.92857143  0.85714286  0.72962963  1
  Ti  Ti13131  1  0.92857143  0.92857143  0.72962963  1
  Ti  Ti13132  1  0.02380950  0.04761907  0.71851852  1
  Ti  Ti13133  1  0.02380950  0.11904764  0.71851852  1
  Ti  Ti13134  1  0.02380950  0.19047621  0.71851852  1
  Ti  Ti13135  1  0.02380950  0.26190479  0.71851852  1
  Ti  Ti13136  1  0.02380950  0.33333336  0.71851852  1
  Ti  Ti13137  1  0.02380950  0.40476193  0.71851852  1
  Ti  Ti13138  1  0.02380950  0.47619050  0.71851852  1
  Ti  Ti13139  1  0.02380950  0.54761907  0.71851852  1
  Ti  Ti13140  1  0.02380950  0.61904764  0.71851852  1
  Ti  Ti13141  1  0.02380950  0.69047621  0.71851852  1
  Ti  Ti13142  1  0.02380950  0.76190479  0.71851852  1
  Ti  Ti13143  1  0.02380950  0.83333336  0.71851852  1
  Ti  Ti13144  1  0.02380950  0.90476193  0.71851852  1
  Ti  Ti13145  1  0.02380950  0.97619050  0.71851852  1
  Ti  Ti13146  1  0.09523807  0.04761907  0.71851852  1
  Ti  Ti13147  1  0.09523807  0.11904764  0.71851852  1
  Ti  Ti13148  1  0.09523807  0.19047621  0.71851852  1
  Ti  Ti13149  1  0.09523807  0.26190479  0.71851852  1
  Ti  Ti13150  1  0.09523807  0.33333336  0.71851852  1
  Ti  Ti13151  1  0.09523807  0.40476193  0.71851852  1
  Ti  Ti13152  1  0.09523807  0.47619050  0.71851852  1
  Ti  Ti13153  1  0.09523807  0.54761907  0.71851852  1
  Ti  Ti13154  1  0.09523807  0.61904764  0.71851852  1
  Ti  Ti13155  1  0.09523807  0.69047621  0.71851852  1
  Ti  Ti13156  1  0.09523807  0.76190479  0.71851852  1
  Ti  Ti13157  1  0.09523807  0.83333336  0.71851852  1
  Ti  Ti13158  1  0.09523807  0.90476193  0.71851852  1
  Ti  Ti13159  1  0.09523807  0.97619050  0.71851852  1
  Ti  Ti13160  1  0.16666664  0.04761907  0.71851852  1
  Ti  Ti13161  1  0.16666664  0.11904764  0.71851852  1
  Ti  Ti13162  1  0.16666664  0.19047621  0.71851852  1
  Ti  Ti13163  1  0.16666664  0.26190479  0.71851852  1
  Ti  Ti13164  1  0.16666664  0.33333336  0.71851852  1
  Ti  Ti13165  1  0.16666664  0.40476193  0.71851852  1
  Ti  Ti13166  1  0.16666664  0.47619050  0.71851852  1
  Ti  Ti13167  1  0.16666664  0.54761907  0.71851852  1
  Ti  Ti13168  1  0.16666664  0.61904764  0.71851852  1
  Ti  Ti13169  1  0.16666664  0.69047621  0.71851852  1
  Ti  Ti13170  1  0.16666664  0.76190479  0.71851852  1
  Ti  Ti13171  1  0.16666664  0.83333336  0.71851852  1
  Ti  Ti13172  1  0.16666664  0.90476193  0.71851852  1
  Ti  Ti13173  1  0.16666664  0.97619050  0.71851852  1
  Ti  Ti13174  1  0.23809521  0.04761907  0.71851852  1
  Ti  Ti13175  1  0.23809521  0.11904764  0.71851852  1
  Ti  Ti13176  1  0.23809521  0.19047621  0.71851852  1
  Ti  Ti13177  1  0.23809521  0.26190479  0.71851852  1
  Ti  Ti13178  1  0.23809521  0.33333336  0.71851852  1
  Ti  Ti13179  1  0.23809521  0.40476193  0.71851852  1
  Ti  Ti13180  1  0.23809521  0.47619050  0.71851852  1
  Ti  Ti13181  1  0.23809521  0.54761907  0.71851852  1
  Ti  Ti13182  1  0.23809521  0.61904764  0.71851852  1
  Ti  Ti13183  1  0.23809521  0.69047621  0.71851852  1
  Ti  Ti13184  1  0.23809521  0.76190479  0.71851852  1
  Ti  Ti13185  1  0.23809521  0.83333336  0.71851852  1
  Ti  Ti13186  1  0.23809521  0.90476193  0.71851852  1
  Ti  Ti13187  1  0.23809521  0.97619050  0.71851852  1
  Ti  Ti13188  1  0.30952379  0.04761907  0.71851852  1
  Ti  Ti13189  1  0.30952379  0.11904764  0.71851852  1
  Ti  Ti13190  1  0.30952379  0.19047621  0.71851852  1
  Ti  Ti13191  1  0.30952379  0.26190479  0.71851852  1
  Ti  Ti13192  1  0.30952379  0.33333336  0.71851852  1
  Ti  Ti13193  1  0.30952379  0.40476193  0.71851852  1
  Ti  Ti13194  1  0.30952379  0.47619050  0.71851852  1
  Ti  Ti13195  1  0.30952379  0.54761907  0.71851852  1
  Ti  Ti13196  1  0.30952379  0.61904764  0.71851852  1
  Ti  Ti13197  1  0.30952379  0.69047621  0.71851852  1
  Ti  Ti13198  1  0.30952379  0.76190479  0.71851852  1
  Ti  Ti13199  1  0.30952379  0.83333336  0.71851852  1
  Ti  Ti13200  1  0.30952379  0.90476193  0.71851852  1
  Ti  Ti13201  1  0.30952379  0.97619050  0.71851852  1
  Ti  Ti13202  1  0.38095236  0.04761907  0.71851852  1
  Ti  Ti13203  1  0.38095236  0.11904764  0.71851852  1
  Ti  Ti13204  1  0.38095236  0.19047621  0.71851852  1
  Ti  Ti13205  1  0.38095236  0.26190479  0.71851852  1
  Ti  Ti13206  1  0.38095236  0.33333336  0.71851852  1
  Ti  Ti13207  1  0.38095236  0.40476193  0.71851852  1
  Ti  Ti13208  1  0.38095236  0.47619050  0.71851852  1
  Ti  Ti13209  1  0.38095236  0.54761907  0.71851852  1
  Ti  Ti13210  1  0.38095236  0.61904764  0.71851852  1
  Ti  Ti13211  1  0.38095236  0.69047621  0.71851852  1
  Ti  Ti13212  1  0.38095236  0.76190479  0.71851852  1
  Ti  Ti13213  1  0.38095236  0.83333336  0.71851852  1
  Ti  Ti13214  1  0.38095236  0.90476193  0.71851852  1
  Ti  Ti13215  1  0.38095236  0.97619050  0.71851852  1
  Ti  Ti13216  1  0.45238093  0.04761907  0.71851852  1
  Ti  Ti13217  1  0.45238093  0.11904764  0.71851852  1
  Ti  Ti13218  1  0.45238093  0.19047621  0.71851852  1
  Ti  Ti13219  1  0.45238093  0.26190479  0.71851852  1
  Ti  Ti13220  1  0.45238093  0.33333336  0.71851852  1
  Ti  Ti13221  1  0.45238093  0.40476193  0.71851852  1
  Ti  Ti13222  1  0.45238093  0.47619050  0.71851852  1
  Ti  Ti13223  1  0.45238093  0.54761907  0.71851852  1
  Ti  Ti13224  1  0.45238093  0.61904764  0.71851852  1
  Ti  Ti13225  1  0.45238093  0.69047621  0.71851852  1
  Ti  Ti13226  1  0.45238093  0.76190479  0.71851852  1
  Ti  Ti13227  1  0.45238093  0.83333336  0.71851852  1
  Ti  Ti13228  1  0.45238093  0.90476193  0.71851852  1
  Ti  Ti13229  1  0.45238093  0.97619050  0.71851852  1
  Ti  Ti13230  1  0.52380950  0.04761907  0.71851852  1
  Ti  Ti13231  1  0.52380950  0.11904764  0.71851852  1
  Ti  Ti13232  1  0.52380950  0.19047621  0.71851852  1
  Ti  Ti13233  1  0.52380950  0.26190479  0.71851852  1
  Ti  Ti13234  1  0.52380950  0.33333336  0.71851852  1
  Ti  Ti13235  1  0.52380950  0.40476193  0.71851852  1
  Ti  Ti13236  1  0.52380950  0.47619050  0.71851852  1
  Ti  Ti13237  1  0.52380950  0.54761907  0.71851852  1
  Ti  Ti13238  1  0.52380950  0.61904764  0.71851852  1
  Ti  Ti13239  1  0.52380950  0.69047621  0.71851852  1
  Ti  Ti13240  1  0.52380950  0.76190479  0.71851852  1
  Ti  Ti13241  1  0.52380950  0.83333336  0.71851852  1
  Ti  Ti13242  1  0.52380950  0.90476193  0.71851852  1
  Ti  Ti13243  1  0.52380950  0.97619050  0.71851852  1
  Ti  Ti13244  1  0.59523807  0.04761907  0.71851852  1
  Ti  Ti13245  1  0.59523807  0.11904764  0.71851852  1
  Ti  Ti13246  1  0.59523807  0.19047621  0.71851852  1
  Ti  Ti13247  1  0.59523807  0.26190479  0.71851852  1
  Ti  Ti13248  1  0.59523807  0.33333336  0.71851852  1
  Ti  Ti13249  1  0.59523807  0.40476193  0.71851852  1
  Ti  Ti13250  1  0.59523807  0.47619050  0.71851852  1
  Ti  Ti13251  1  0.59523807  0.54761907  0.71851852  1
  Ti  Ti13252  1  0.59523807  0.61904764  0.71851852  1
  Ti  Ti13253  1  0.59523807  0.69047621  0.71851852  1
  Ti  Ti13254  1  0.59523807  0.76190479  0.71851852  1
  Ti  Ti13255  1  0.59523807  0.83333336  0.71851852  1
  Ti  Ti13256  1  0.59523807  0.90476193  0.71851852  1
  Ti  Ti13257  1  0.59523807  0.97619050  0.71851852  1
  Ti  Ti13258  1  0.66666664  0.04761907  0.71851852  1
  Ti  Ti13259  1  0.66666664  0.11904764  0.71851852  1
  Ti  Ti13260  1  0.66666664  0.19047621  0.71851852  1
  Ti  Ti13261  1  0.66666664  0.26190479  0.71851852  1
  Ti  Ti13262  1  0.66666664  0.33333336  0.71851852  1
  Ti  Ti13263  1  0.66666664  0.40476193  0.71851852  1
  Ti  Ti13264  1  0.66666664  0.47619050  0.71851852  1
  Ti  Ti13265  1  0.66666664  0.54761907  0.71851852  1
  Ti  Ti13266  1  0.66666664  0.61904764  0.71851852  1
  Ti  Ti13267  1  0.66666664  0.69047621  0.71851852  1
  Ti  Ti13268  1  0.66666664  0.76190479  0.71851852  1
  Ti  Ti13269  1  0.66666664  0.83333336  0.71851852  1
  Ti  Ti13270  1  0.66666664  0.90476193  0.71851852  1
  Ti  Ti13271  1  0.66666664  0.97619050  0.71851852  1
  Ti  Ti13272  1  0.73809521  0.04761907  0.71851852  1
  Ti  Ti13273  1  0.73809521  0.11904764  0.71851852  1
  Ti  Ti13274  1  0.73809521  0.19047621  0.71851852  1
  Ti  Ti13275  1  0.73809521  0.26190479  0.71851852  1
  Ti  Ti13276  1  0.73809521  0.33333336  0.71851852  1
  Ti  Ti13277  1  0.73809521  0.40476193  0.71851852  1
  Ti  Ti13278  1  0.73809521  0.47619050  0.71851852  1
  Ti  Ti13279  1  0.73809521  0.54761907  0.71851852  1
  Ti  Ti13280  1  0.73809521  0.61904764  0.71851852  1
  Ti  Ti13281  1  0.73809521  0.69047621  0.71851852  1
  Ti  Ti13282  1  0.73809521  0.76190479  0.71851852  1
  Ti  Ti13283  1  0.73809521  0.83333336  0.71851852  1
  Ti  Ti13284  1  0.73809521  0.90476193  0.71851852  1
  Ti  Ti13285  1  0.73809521  0.97619050  0.71851852  1
  Ti  Ti13286  1  0.80952379  0.04761907  0.71851852  1
  Ti  Ti13287  1  0.80952379  0.11904764  0.71851852  1
  Ti  Ti13288  1  0.80952379  0.19047621  0.71851852  1
  Ti  Ti13289  1  0.80952379  0.26190479  0.71851852  1
  Ti  Ti13290  1  0.80952379  0.33333336  0.71851852  1
  Ti  Ti13291  1  0.80952379  0.40476193  0.71851852  1
  Ti  Ti13292  1  0.80952379  0.47619050  0.71851852  1
  Ti  Ti13293  1  0.80952379  0.54761907  0.71851852  1
  Ti  Ti13294  1  0.80952379  0.61904764  0.71851852  1
  Ti  Ti13295  1  0.80952379  0.69047621  0.71851852  1
  Ti  Ti13296  1  0.80952379  0.76190479  0.71851852  1
  Ti  Ti13297  1  0.80952379  0.83333336  0.71851852  1
  Ti  Ti13298  1  0.80952379  0.90476193  0.71851852  1
  Ti  Ti13299  1  0.80952379  0.97619050  0.71851852  1
  Ti  Ti13300  1  0.88095236  0.04761907  0.71851852  1
  Ti  Ti13301  1  0.88095236  0.11904764  0.71851852  1
  Ti  Ti13302  1  0.88095236  0.19047621  0.71851852  1
  Ti  Ti13303  1  0.88095236  0.26190479  0.71851852  1
  Ti  Ti13304  1  0.88095236  0.33333336  0.71851852  1
  Ti  Ti13305  1  0.88095236  0.40476193  0.71851852  1
  Ti  Ti13306  1  0.88095236  0.47619050  0.71851852  1
  Ti  Ti13307  1  0.88095236  0.54761907  0.71851852  1
  Ti  Ti13308  1  0.88095236  0.61904764  0.71851852  1
  Ti  Ti13309  1  0.88095236  0.69047621  0.71851852  1
  Ti  Ti13310  1  0.88095236  0.76190479  0.71851852  1
  Ti  Ti13311  1  0.88095236  0.83333336  0.71851852  1
  Ti  Ti13312  1  0.88095236  0.90476193  0.71851852  1
  Ti  Ti13313  1  0.88095236  0.97619050  0.71851852  1
  Ti  Ti13314  1  0.95238093  0.04761907  0.71851852  1
  Ti  Ti13315  1  0.95238093  0.11904764  0.71851852  1
  Ti  Ti13316  1  0.95238093  0.19047621  0.71851852  1
  Ti  Ti13317  1  0.95238093  0.26190479  0.71851852  1
  Ti  Ti13318  1  0.95238093  0.33333336  0.71851852  1
  Ti  Ti13319  1  0.95238093  0.40476193  0.71851852  1
  Ti  Ti13320  1  0.95238093  0.47619050  0.71851852  1
  Ti  Ti13321  1  0.95238093  0.54761907  0.71851852  1
  Ti  Ti13322  1  0.95238093  0.61904764  0.71851852  1
  Ti  Ti13323  1  0.95238093  0.69047621  0.71851852  1
  Ti  Ti13324  1  0.95238093  0.76190479  0.71851852  1
  Ti  Ti13325  1  0.95238093  0.83333336  0.71851852  1
  Ti  Ti13326  1  0.95238093  0.90476193  0.71851852  1
  Ti  Ti13327  1  0.95238093  0.97619050  0.71851852  1
  Ti  Ti13328  1  0.04761907  0.02380950  0.71851852  1
  Ti  Ti13329  1  0.04761907  0.09523807  0.71851852  1
  Ti  Ti13330  1  0.04761907  0.16666664  0.71851852  1
  Ti  Ti13331  1  0.04761907  0.23809521  0.71851852  1
  Ti  Ti13332  1  0.04761907  0.30952379  0.71851852  1
  Ti  Ti13333  1  0.04761907  0.38095236  0.71851852  1
  Ti  Ti13334  1  0.04761907  0.45238093  0.71851852  1
  Ti  Ti13335  1  0.04761907  0.52380950  0.71851852  1
  Ti  Ti13336  1  0.04761907  0.59523807  0.71851852  1
  Ti  Ti13337  1  0.04761907  0.66666664  0.71851852  1
  Ti  Ti13338  1  0.04761907  0.73809521  0.71851852  1
  Ti  Ti13339  1  0.04761907  0.80952379  0.71851852  1
  Ti  Ti13340  1  0.04761907  0.88095236  0.71851852  1
  Ti  Ti13341  1  0.04761907  0.95238093  0.71851852  1
  Ti  Ti13342  1  0.11904764  0.02380950  0.71851852  1
  Ti  Ti13343  1  0.11904764  0.09523807  0.71851852  1
  Ti  Ti13344  1  0.11904764  0.16666664  0.71851852  1
  Ti  Ti13345  1  0.11904764  0.23809521  0.71851852  1
  Ti  Ti13346  1  0.11904764  0.30952379  0.71851852  1
  Ti  Ti13347  1  0.11904764  0.38095236  0.71851852  1
  Ti  Ti13348  1  0.11904764  0.45238093  0.71851852  1
  Ti  Ti13349  1  0.11904764  0.52380950  0.71851852  1
  Ti  Ti13350  1  0.11904764  0.59523807  0.71851852  1
  Ti  Ti13351  1  0.11904764  0.66666664  0.71851852  1
  Ti  Ti13352  1  0.11904764  0.73809521  0.71851852  1
  Ti  Ti13353  1  0.11904764  0.80952379  0.71851852  1
  Ti  Ti13354  1  0.11904764  0.88095236  0.71851852  1
  Ti  Ti13355  1  0.11904764  0.95238093  0.71851852  1
  Ti  Ti13356  1  0.19047621  0.02380950  0.71851852  1
  Ti  Ti13357  1  0.19047621  0.09523807  0.71851852  1
  Ti  Ti13358  1  0.19047621  0.16666664  0.71851852  1
  Ti  Ti13359  1  0.19047621  0.23809521  0.71851852  1
  Ti  Ti13360  1  0.19047621  0.30952379  0.71851852  1
  Ti  Ti13361  1  0.19047621  0.38095236  0.71851852  1
  Ti  Ti13362  1  0.19047621  0.45238093  0.71851852  1
  Ti  Ti13363  1  0.19047621  0.52380950  0.71851852  1
  Ti  Ti13364  1  0.19047621  0.59523807  0.71851852  1
  Ti  Ti13365  1  0.19047621  0.66666664  0.71851852  1
  Ti  Ti13366  1  0.19047621  0.73809521  0.71851852  1
  Ti  Ti13367  1  0.19047621  0.80952379  0.71851852  1
  Ti  Ti13368  1  0.19047621  0.88095236  0.71851852  1
  Ti  Ti13369  1  0.19047621  0.95238093  0.71851852  1
  Ti  Ti13370  1  0.26190479  0.02380950  0.71851852  1
  Ti  Ti13371  1  0.26190479  0.09523807  0.71851852  1
  Ti  Ti13372  1  0.26190479  0.16666664  0.71851852  1
  Ti  Ti13373  1  0.26190479  0.23809521  0.71851852  1
  Ti  Ti13374  1  0.26190479  0.30952379  0.71851852  1
  Ti  Ti13375  1  0.26190479  0.38095236  0.71851852  1
  Ti  Ti13376  1  0.26190479  0.45238093  0.71851852  1
  Ti  Ti13377  1  0.26190479  0.52380950  0.71851852  1
  Ti  Ti13378  1  0.26190479  0.59523807  0.71851852  1
  Ti  Ti13379  1  0.26190479  0.66666664  0.71851852  1
  Ti  Ti13380  1  0.26190479  0.73809521  0.71851852  1
  Ti  Ti13381  1  0.26190479  0.80952379  0.71851852  1
  Ti  Ti13382  1  0.26190479  0.88095236  0.71851852  1
  Ti  Ti13383  1  0.26190479  0.95238093  0.71851852  1
  Ti  Ti13384  1  0.33333336  0.02380950  0.71851852  1
  Ti  Ti13385  1  0.33333336  0.09523807  0.71851852  1
  Ti  Ti13386  1  0.33333336  0.16666664  0.71851852  1
  Ti  Ti13387  1  0.33333336  0.23809521  0.71851852  1
  Ti  Ti13388  1  0.33333336  0.30952379  0.71851852  1
  Ti  Ti13389  1  0.33333336  0.38095236  0.71851852  1
  Ti  Ti13390  1  0.33333336  0.45238093  0.71851852  1
  Ti  Ti13391  1  0.33333336  0.52380950  0.71851852  1
  Ti  Ti13392  1  0.33333336  0.59523807  0.71851852  1
  Ti  Ti13393  1  0.33333336  0.66666664  0.71851852  1
  Ti  Ti13394  1  0.33333336  0.73809521  0.71851852  1
  Ti  Ti13395  1  0.33333336  0.80952379  0.71851852  1
  Ti  Ti13396  1  0.33333336  0.88095236  0.71851852  1
  Ti  Ti13397  1  0.33333336  0.95238093  0.71851852  1
  Ti  Ti13398  1  0.40476193  0.02380950  0.71851852  1
  Ti  Ti13399  1  0.40476193  0.09523807  0.71851852  1
  Ti  Ti13400  1  0.40476193  0.16666664  0.71851852  1
  Ti  Ti13401  1  0.40476193  0.23809521  0.71851852  1
  Ti  Ti13402  1  0.40476193  0.30952379  0.71851852  1
  Ti  Ti13403  1  0.40476193  0.38095236  0.71851852  1
  Ti  Ti13404  1  0.40476193  0.45238093  0.71851852  1
  Ti  Ti13405  1  0.40476193  0.52380950  0.71851852  1
  Ti  Ti13406  1  0.40476193  0.59523807  0.71851852  1
  Ti  Ti13407  1  0.40476193  0.66666664  0.71851852  1
  Ti  Ti13408  1  0.40476193  0.73809521  0.71851852  1
  Ti  Ti13409  1  0.40476193  0.80952379  0.71851852  1
  Ti  Ti13410  1  0.40476193  0.88095236  0.71851852  1
  Ti  Ti13411  1  0.40476193  0.95238093  0.71851852  1
  Ti  Ti13412  1  0.47619050  0.02380950  0.71851852  1
  Ti  Ti13413  1  0.47619050  0.09523807  0.71851852  1
  Ti  Ti13414  1  0.47619050  0.16666664  0.71851852  1
  Ti  Ti13415  1  0.47619050  0.23809521  0.71851852  1
  Ti  Ti13416  1  0.47619050  0.30952379  0.71851852  1
  Ti  Ti13417  1  0.47619050  0.38095236  0.71851852  1
  Ti  Ti13418  1  0.47619050  0.45238093  0.71851852  1
  Ti  Ti13419  1  0.47619050  0.52380950  0.71851852  1
  Ti  Ti13420  1  0.47619050  0.59523807  0.71851852  1
  Ti  Ti13421  1  0.47619050  0.66666664  0.71851852  1
  Ti  Ti13422  1  0.47619050  0.73809521  0.71851852  1
  Ti  Ti13423  1  0.47619050  0.80952379  0.71851852  1
  Ti  Ti13424  1  0.47619050  0.88095236  0.71851852  1
  Ti  Ti13425  1  0.47619050  0.95238093  0.71851852  1
  Ti  Ti13426  1  0.54761907  0.02380950  0.71851852  1
  Ti  Ti13427  1  0.54761907  0.09523807  0.71851852  1
  Ti  Ti13428  1  0.54761907  0.16666664  0.71851852  1
  Ti  Ti13429  1  0.54761907  0.23809521  0.71851852  1
  Ti  Ti13430  1  0.54761907  0.30952379  0.71851852  1
  Ti  Ti13431  1  0.54761907  0.38095236  0.71851852  1
  Ti  Ti13432  1  0.54761907  0.45238093  0.71851852  1
  Ti  Ti13433  1  0.54761907  0.52380950  0.71851852  1
  Ti  Ti13434  1  0.54761907  0.59523807  0.71851852  1
  Ti  Ti13435  1  0.54761907  0.66666664  0.71851852  1
  Ti  Ti13436  1  0.54761907  0.73809521  0.71851852  1
  Ti  Ti13437  1  0.54761907  0.80952379  0.71851852  1
  Ti  Ti13438  1  0.54761907  0.88095236  0.71851852  1
  Ti  Ti13439  1  0.54761907  0.95238093  0.71851852  1
  Ti  Ti13440  1  0.61904764  0.02380950  0.71851852  1
  Ti  Ti13441  1  0.61904764  0.09523807  0.71851852  1
  Ti  Ti13442  1  0.61904764  0.16666664  0.71851852  1
  Ti  Ti13443  1  0.61904764  0.23809521  0.71851852  1
  Ti  Ti13444  1  0.61904764  0.30952379  0.71851852  1
  Ti  Ti13445  1  0.61904764  0.38095236  0.71851852  1
  Ti  Ti13446  1  0.61904764  0.45238093  0.71851852  1
  Ti  Ti13447  1  0.61904764  0.52380950  0.71851852  1
  Ti  Ti13448  1  0.61904764  0.59523807  0.71851852  1
  Ti  Ti13449  1  0.61904764  0.66666664  0.71851852  1
  Ti  Ti13450  1  0.61904764  0.73809521  0.71851852  1
  Ti  Ti13451  1  0.61904764  0.80952379  0.71851852  1
  Ti  Ti13452  1  0.61904764  0.88095236  0.71851852  1
  Ti  Ti13453  1  0.61904764  0.95238093  0.71851852  1
  Ti  Ti13454  1  0.69047621  0.02380950  0.71851852  1
  Ti  Ti13455  1  0.69047621  0.09523807  0.71851852  1
  Ti  Ti13456  1  0.69047621  0.16666664  0.71851852  1
  Ti  Ti13457  1  0.69047621  0.23809521  0.71851852  1
  Ti  Ti13458  1  0.69047621  0.30952379  0.71851852  1
  Ti  Ti13459  1  0.69047621  0.38095236  0.71851852  1
  Ti  Ti13460  1  0.69047621  0.45238093  0.71851852  1
  Ti  Ti13461  1  0.69047621  0.52380950  0.71851852  1
  Ti  Ti13462  1  0.69047621  0.59523807  0.71851852  1
  Ti  Ti13463  1  0.69047621  0.66666664  0.71851852  1
  Ti  Ti13464  1  0.69047621  0.73809521  0.71851852  1
  Ti  Ti13465  1  0.69047621  0.80952379  0.71851852  1
  Ti  Ti13466  1  0.69047621  0.88095236  0.71851852  1
  Ti  Ti13467  1  0.69047621  0.95238093  0.71851852  1
  Ti  Ti13468  1  0.76190479  0.02380950  0.71851852  1
  Ti  Ti13469  1  0.76190479  0.09523807  0.71851852  1
  Ti  Ti13470  1  0.76190479  0.16666664  0.71851852  1
  Ti  Ti13471  1  0.76190479  0.23809521  0.71851852  1
  Ti  Ti13472  1  0.76190479  0.30952379  0.71851852  1
  Ti  Ti13473  1  0.76190479  0.38095236  0.71851852  1
  Ti  Ti13474  1  0.76190479  0.45238093  0.71851852  1
  Ti  Ti13475  1  0.76190479  0.52380950  0.71851852  1
  Ti  Ti13476  1  0.76190479  0.59523807  0.71851852  1
  Ti  Ti13477  1  0.76190479  0.66666664  0.71851852  1
  Ti  Ti13478  1  0.76190479  0.73809521  0.71851852  1
  Ti  Ti13479  1  0.76190479  0.80952379  0.71851852  1
  Ti  Ti13480  1  0.76190479  0.88095236  0.71851852  1
  Ti  Ti13481  1  0.76190479  0.95238093  0.71851852  1
  Ti  Ti13482  1  0.83333336  0.02380950  0.71851852  1
  Ti  Ti13483  1  0.83333336  0.09523807  0.71851852  1
  Ti  Ti13484  1  0.83333336  0.16666664  0.71851852  1
  Ti  Ti13485  1  0.83333336  0.23809521  0.71851852  1
  Ti  Ti13486  1  0.83333336  0.30952379  0.71851852  1
  Ti  Ti13487  1  0.83333336  0.38095236  0.71851852  1
  Ti  Ti13488  1  0.83333336  0.45238093  0.71851852  1
  Ti  Ti13489  1  0.83333336  0.52380950  0.71851852  1
  Ti  Ti13490  1  0.83333336  0.59523807  0.71851852  1
  Ti  Ti13491  1  0.83333336  0.66666664  0.71851852  1
  Ti  Ti13492  1  0.83333336  0.73809521  0.71851852  1
  Ti  Ti13493  1  0.83333336  0.80952379  0.71851852  1
  Ti  Ti13494  1  0.83333336  0.88095236  0.71851852  1
  Ti  Ti13495  1  0.83333336  0.95238093  0.71851852  1
  Ti  Ti13496  1  0.90476193  0.02380950  0.71851852  1
  Ti  Ti13497  1  0.90476193  0.09523807  0.71851852  1
  Ti  Ti13498  1  0.90476193  0.16666664  0.71851852  1
  Ti  Ti13499  1  0.90476193  0.23809521  0.71851852  1
  Ti  Ti13500  1  0.90476193  0.30952379  0.71851852  1
  Ti  Ti13501  1  0.90476193  0.38095236  0.71851852  1
  Ti  Ti13502  1  0.90476193  0.45238093  0.71851852  1
  Ti  Ti13503  1  0.90476193  0.52380950  0.71851852  1
  Ti  Ti13504  1  0.90476193  0.59523807  0.71851852  1
  Ti  Ti13505  1  0.90476193  0.66666664  0.71851852  1
  Ti  Ti13506  1  0.90476193  0.73809521  0.71851852  1
  Ti  Ti13507  1  0.90476193  0.80952379  0.71851852  1
  Ti  Ti13508  1  0.90476193  0.88095236  0.71851852  1
  Ti  Ti13509  1  0.90476193  0.95238093  0.71851852  1
  Ti  Ti13510  1  0.97619050  0.02380950  0.71851852  1
  Ti  Ti13511  1  0.97619050  0.09523807  0.71851852  1
  Ti  Ti13512  1  0.97619050  0.16666664  0.71851852  1
  Ti  Ti13513  1  0.97619050  0.23809521  0.71851852  1
  Ti  Ti13514  1  0.97619050  0.30952379  0.71851852  1
  Ti  Ti13515  1  0.97619050  0.38095236  0.71851852  1
  Ti  Ti13516  1  0.97619050  0.45238093  0.71851852  1
  Ti  Ti13517  1  0.97619050  0.52380950  0.71851852  1
  Ti  Ti13518  1  0.97619050  0.59523807  0.71851852  1
  Ti  Ti13519  1  0.97619050  0.66666664  0.71851852  1
  Ti  Ti13520  1  0.97619050  0.73809521  0.71851852  1
  Ti  Ti13521  1  0.97619050  0.80952379  0.71851852  1
  Ti  Ti13522  1  0.97619050  0.88095236  0.71851852  1
  Ti  Ti13523  1  0.97619050  0.95238093  0.71851852  1
  Ti  Ti13524  1  0.00000000  0.00000000  0.75185185  1
  Ti  Ti13525  1  0.00000000  0.07142857  0.75185185  1
  Ti  Ti13526  1  0.00000000  0.14285714  0.75185185  1
  Ti  Ti13527  1  0.00000000  0.21428571  0.75185185  1
  Ti  Ti13528  1  0.00000000  0.28571429  0.75185185  1
  Ti  Ti13529  1  0.00000000  0.35714286  0.75185185  1
  Ti  Ti13530  1  0.00000000  0.42857143  0.75185185  1
  Ti  Ti13531  1  0.00000000  0.50000000  0.75185185  1
  Ti  Ti13532  1  0.00000000  0.57142857  0.75185185  1
  Ti  Ti13533  1  0.00000000  0.64285714  0.75185185  1
  Ti  Ti13534  1  0.00000000  0.71428571  0.75185185  1
  Ti  Ti13535  1  1.00000000  0.78571429  0.75185185  1
  Ti  Ti13536  1  0.00000000  0.85714286  0.75185185  1
  Ti  Ti13537  1  0.00000000  0.92857143  0.75185185  1
  Ti  Ti13538  1  0.07142857  0.00000000  0.75185185  1
  Ti  Ti13539  1  0.07142857  0.07142857  0.75185185  1
  Ti  Ti13540  1  0.07142857  0.14285714  0.75185185  1
  Ti  Ti13541  1  0.07142857  0.21428571  0.75185185  1
  Ti  Ti13542  1  0.07142857  0.28571429  0.75185185  1
  Ti  Ti13543  1  0.07142857  0.35714286  0.75185185  1
  Ti  Ti13544  1  0.07142857  0.42857143  0.75185185  1
  Ti  Ti13545  1  0.07142857  0.50000000  0.75185185  1
  Ti  Ti13546  1  0.07142857  0.57142857  0.75185185  1
  Ti  Ti13547  1  0.07142857  0.64285714  0.75185185  1
  Ti  Ti13548  1  0.07142857  0.71428571  0.75185185  1
  Ti  Ti13549  1  0.07142857  0.78571429  0.75185185  1
  Ti  Ti13550  1  0.07142857  0.85714286  0.75185185  1
  Ti  Ti13551  1  0.07142857  0.92857143  0.75185185  1
  Ti  Ti13552  1  0.14285714  0.00000000  0.75185185  1
  Ti  Ti13553  1  0.14285714  0.07142857  0.75185185  1
  Ti  Ti13554  1  0.14285714  0.14285714  0.75185185  1
  Ti  Ti13555  1  0.14285714  0.21428571  0.75185185  1
  Ti  Ti13556  1  0.14285714  0.28571429  0.75185185  1
  Ti  Ti13557  1  0.14285714  0.35714286  0.75185185  1
  Ti  Ti13558  1  0.14285714  0.42857143  0.75185185  1
  Ti  Ti13559  1  0.14285714  0.50000000  0.75185185  1
  Ti  Ti13560  1  0.14285714  0.57142857  0.75185185  1
  Ti  Ti13561  1  0.14285714  0.64285714  0.75185185  1
  Ti  Ti13562  1  0.14285714  0.71428571  0.75185185  1
  Ti  Ti13563  1  0.14285714  0.78571429  0.75185185  1
  Ti  Ti13564  1  0.14285714  0.85714286  0.75185185  1
  Ti  Ti13565  1  0.14285714  0.92857143  0.75185185  1
  Ti  Ti13566  1  0.21428571  0.00000000  0.75185185  1
  Ti  Ti13567  1  0.21428571  0.07142857  0.75185185  1
  Ti  Ti13568  1  0.21428571  0.14285714  0.75185185  1
  Ti  Ti13569  1  0.21428571  0.21428571  0.75185185  1
  Ti  Ti13570  1  0.21428571  0.28571429  0.75185185  1
  Ti  Ti13571  1  0.21428571  0.35714286  0.75185185  1
  Ti  Ti13572  1  0.21428571  0.42857143  0.75185185  1
  Ti  Ti13573  1  0.21428571  0.50000000  0.75185185  1
  Ti  Ti13574  1  0.21428571  0.57142857  0.75185185  1
  Ti  Ti13575  1  0.21428571  0.64285714  0.75185185  1
  Ti  Ti13576  1  0.21428571  0.71428571  0.75185185  1
  Ti  Ti13577  1  0.21428571  0.78571429  0.75185185  1
  Ti  Ti13578  1  0.21428571  0.85714286  0.75185185  1
  Ti  Ti13579  1  0.21428571  0.92857143  0.75185185  1
  Ti  Ti13580  1  0.28571429  0.00000000  0.75185185  1
  Ti  Ti13581  1  0.28571429  0.07142857  0.75185185  1
  Ti  Ti13582  1  0.28571429  0.14285714  0.75185185  1
  Ti  Ti13583  1  0.28571429  0.21428571  0.75185185  1
  Ti  Ti13584  1  0.28571429  0.28571429  0.75185185  1
  Ti  Ti13585  1  0.28571429  0.35714286  0.75185185  1
  Ti  Ti13586  1  0.28571429  0.42857143  0.75185185  1
  Ti  Ti13587  1  0.28571429  0.50000000  0.75185185  1
  Ti  Ti13588  1  0.28571429  0.57142857  0.75185185  1
  Ti  Ti13589  1  0.28571429  0.64285714  0.75185185  1
  Ti  Ti13590  1  0.28571429  0.71428571  0.75185185  1
  Ti  Ti13591  1  0.28571429  0.78571429  0.75185185  1
  Ti  Ti13592  1  0.28571429  0.85714286  0.75185185  1
  Ti  Ti13593  1  0.28571429  0.92857143  0.75185185  1
  Ti  Ti13594  1  0.35714286  0.00000000  0.75185185  1
  Ti  Ti13595  1  0.35714286  0.07142857  0.75185185  1
  Ti  Ti13596  1  0.35714286  0.14285714  0.75185185  1
  Ti  Ti13597  1  0.35714286  0.21428571  0.75185185  1
  Ti  Ti13598  1  0.35714286  0.28571429  0.75185185  1
  Ti  Ti13599  1  0.35714286  0.35714286  0.75185185  1
  Ti  Ti13600  1  0.35714286  0.42857143  0.75185185  1
  Ti  Ti13601  1  0.35714286  0.50000000  0.75185185  1
  Ti  Ti13602  1  0.35714286  0.57142857  0.75185185  1
  Ti  Ti13603  1  0.35714286  0.64285714  0.75185185  1
  Ti  Ti13604  1  0.35714286  0.71428571  0.75185185  1
  Ti  Ti13605  1  0.35714286  0.78571429  0.75185185  1
  Ti  Ti13606  1  0.35714286  0.85714286  0.75185185  1
  Ti  Ti13607  1  0.35714286  0.92857143  0.75185185  1
  Ti  Ti13608  1  0.42857143  0.00000000  0.75185185  1
  Ti  Ti13609  1  0.42857143  0.07142857  0.75185185  1
  Ti  Ti13610  1  0.42857143  0.14285714  0.75185185  1
  Ti  Ti13611  1  0.42857143  0.21428571  0.75185185  1
  Ti  Ti13612  1  0.42857143  0.28571429  0.75185185  1
  Ti  Ti13613  1  0.42857143  0.35714286  0.75185185  1
  Ti  Ti13614  1  0.42857143  0.42857143  0.75185185  1
  Ti  Ti13615  1  0.42857143  0.50000000  0.75185185  1
  Ti  Ti13616  1  0.42857143  0.57142857  0.75185185  1
  Ti  Ti13617  1  0.42857143  0.64285714  0.75185185  1
  Ti  Ti13618  1  0.42857143  0.71428571  0.75185185  1
  Ti  Ti13619  1  0.42857143  0.78571429  0.75185185  1
  Ti  Ti13620  1  0.42857143  0.85714286  0.75185185  1
  Ti  Ti13621  1  0.42857143  0.92857143  0.75185185  1
  Ti  Ti13622  1  0.50000000  0.00000000  0.75185185  1
  Ti  Ti13623  1  0.50000000  0.07142857  0.75185185  1
  Ti  Ti13624  1  0.50000000  0.14285714  0.75185185  1
  Ti  Ti13625  1  0.50000000  0.21428571  0.75185185  1
  Ti  Ti13626  1  0.50000000  0.28571429  0.75185185  1
  Ti  Ti13627  1  0.50000000  0.35714286  0.75185185  1
  Ti  Ti13628  1  0.50000000  0.42857143  0.75185185  1
  Ti  Ti13629  1  0.50000000  0.50000000  0.75185185  1
  Ti  Ti13630  1  0.50000000  0.57142857  0.75185185  1
  Ti  Ti13631  1  0.50000000  0.64285714  0.75185185  1
  Ti  Ti13632  1  0.50000000  0.71428571  0.75185185  1
  Ti  Ti13633  1  0.50000000  0.78571429  0.75185185  1
  Ti  Ti13634  1  0.50000000  0.85714286  0.75185185  1
  Ti  Ti13635  1  0.50000000  0.92857143  0.75185185  1
  Ti  Ti13636  1  0.57142857  0.00000000  0.75185185  1
  Ti  Ti13637  1  0.57142857  0.07142857  0.75185185  1
  Ti  Ti13638  1  0.57142857  0.14285714  0.75185185  1
  Ti  Ti13639  1  0.57142857  0.21428571  0.75185185  1
  Ti  Ti13640  1  0.57142857  0.28571429  0.75185185  1
  Ti  Ti13641  1  0.57142857  0.35714286  0.75185185  1
  Ti  Ti13642  1  0.57142857  0.42857143  0.75185185  1
  Ti  Ti13643  1  0.57142857  0.50000000  0.75185185  1
  Ti  Ti13644  1  0.57142857  0.57142857  0.75185185  1
  Ti  Ti13645  1  0.57142857  0.64285714  0.75185185  1
  Ti  Ti13646  1  0.57142857  0.71428571  0.75185185  1
  Ti  Ti13647  1  0.57142857  0.78571429  0.75185185  1
  Ti  Ti13648  1  0.57142857  0.85714286  0.75185185  1
  Ti  Ti13649  1  0.57142857  0.92857143  0.75185185  1
  Ti  Ti13650  1  0.64285714  0.00000000  0.75185185  1
  Ti  Ti13651  1  0.64285714  0.07142857  0.75185185  1
  Ti  Ti13652  1  0.64285714  0.14285714  0.75185185  1
  Ti  Ti13653  1  0.64285714  0.21428571  0.75185185  1
  Ti  Ti13654  1  0.64285714  0.28571429  0.75185185  1
  Ti  Ti13655  1  0.64285714  0.35714286  0.75185185  1
  Ti  Ti13656  1  0.64285714  0.42857143  0.75185185  1
  Ti  Ti13657  1  0.64285714  0.50000000  0.75185185  1
  Ti  Ti13658  1  0.64285714  0.57142857  0.75185185  1
  Ti  Ti13659  1  0.64285714  0.64285714  0.75185185  1
  Ti  Ti13660  1  0.64285714  0.71428571  0.75185185  1
  Ti  Ti13661  1  0.64285714  0.78571429  0.75185185  1
  Ti  Ti13662  1  0.64285714  0.85714286  0.75185185  1
  Ti  Ti13663  1  0.64285714  0.92857143  0.75185185  1
  Ti  Ti13664  1  0.71428571  0.00000000  0.75185185  1
  Ti  Ti13665  1  0.71428571  0.07142857  0.75185185  1
  Ti  Ti13666  1  0.71428571  0.14285714  0.75185185  1
  Ti  Ti13667  1  0.71428571  0.21428571  0.75185185  1
  Ti  Ti13668  1  0.71428571  0.28571429  0.75185185  1
  Ti  Ti13669  1  0.71428571  0.35714286  0.75185185  1
  Ti  Ti13670  1  0.71428571  0.42857143  0.75185185  1
  Ti  Ti13671  1  0.71428571  0.50000000  0.75185185  1
  Ti  Ti13672  1  0.71428571  0.57142857  0.75185185  1
  Ti  Ti13673  1  0.71428571  0.64285714  0.75185185  1
  Ti  Ti13674  1  0.71428571  0.71428571  0.75185185  1
  Ti  Ti13675  1  0.71428571  0.78571429  0.75185185  1
  Ti  Ti13676  1  0.71428571  0.85714286  0.75185185  1
  Ti  Ti13677  1  0.71428571  0.92857143  0.75185185  1
  Ti  Ti13678  1  0.78571429  0.00000000  0.75185185  1
  Ti  Ti13679  1  0.78571429  0.07142857  0.75185185  1
  Ti  Ti13680  1  0.78571429  0.14285714  0.75185185  1
  Ti  Ti13681  1  0.78571429  0.21428571  0.75185185  1
  Ti  Ti13682  1  0.78571429  0.28571429  0.75185185  1
  Ti  Ti13683  1  0.78571429  0.35714286  0.75185185  1
  Ti  Ti13684  1  0.78571429  0.42857143  0.75185185  1
  Ti  Ti13685  1  0.78571429  0.50000000  0.75185185  1
  Ti  Ti13686  1  0.78571429  0.57142857  0.75185185  1
  Ti  Ti13687  1  0.78571429  0.64285714  0.75185185  1
  Ti  Ti13688  1  0.78571429  0.71428571  0.75185185  1
  Ti  Ti13689  1  0.78571429  0.78571429  0.75185185  1
  Ti  Ti13690  1  0.78571429  0.85714286  0.75185185  1
  Ti  Ti13691  1  0.78571429  0.92857143  0.75185185  1
  Ti  Ti13692  1  0.85714286  0.00000000  0.75185185  1
  Ti  Ti13693  1  0.85714286  0.07142857  0.75185185  1
  Ti  Ti13694  1  0.85714286  0.14285714  0.75185185  1
  Ti  Ti13695  1  0.85714286  0.21428571  0.75185185  1
  Ti  Ti13696  1  0.85714286  0.28571429  0.75185185  1
  Ti  Ti13697  1  0.85714286  0.35714286  0.75185185  1
  Ti  Ti13698  1  0.85714286  0.42857143  0.75185185  1
  Ti  Ti13699  1  0.85714286  0.50000000  0.75185185  1
  Ti  Ti13700  1  0.85714286  0.57142857  0.75185185  1
  Ti  Ti13701  1  0.85714286  0.64285714  0.75185185  1
  Ti  Ti13702  1  0.85714286  0.71428571  0.75185185  1
  Ti  Ti13703  1  0.85714286  0.78571429  0.75185185  1
  Ti  Ti13704  1  0.85714286  0.85714286  0.75185185  1
  Ti  Ti13705  1  0.85714286  0.92857143  0.75185185  1
  Ti  Ti13706  1  0.92857143  0.00000000  0.75185185  1
  Ti  Ti13707  1  0.92857143  0.07142857  0.75185185  1
  Ti  Ti13708  1  0.92857143  0.14285714  0.75185185  1
  Ti  Ti13709  1  0.92857143  0.21428571  0.75185185  1
  Ti  Ti13710  1  0.92857143  0.28571429  0.75185185  1
  Ti  Ti13711  1  0.92857143  0.35714286  0.75185185  1
  Ti  Ti13712  1  0.92857143  0.42857143  0.75185185  1
  Ti  Ti13713  1  0.92857143  0.50000000  0.75185185  1
  Ti  Ti13714  1  0.92857143  0.57142857  0.75185185  1
  Ti  Ti13715  1  0.92857143  0.64285714  0.75185185  1
  Ti  Ti13716  1  0.92857143  0.71428571  0.75185185  1
  Ti  Ti13717  1  0.92857143  0.78571429  0.75185185  1
  Ti  Ti13718  1  0.92857143  0.85714286  0.75185185  1
  Ti  Ti13719  1  0.92857143  0.92857143  0.75185185  1
  Ti  Ti13720  1  0.02380950  0.04761907  0.74074074  1
  Ti  Ti13721  1  0.02380950  0.11904764  0.74074074  1
  Ti  Ti13722  1  0.02380950  0.19047621  0.74074074  1
  Ti  Ti13723  1  0.02380950  0.26190479  0.74074074  1
  Ti  Ti13724  1  0.02380950  0.33333336  0.74074074  1
  Ti  Ti13725  1  0.02380950  0.40476193  0.74074074  1
  Ti  Ti13726  1  0.02380950  0.47619050  0.74074074  1
  Ti  Ti13727  1  0.02380950  0.54761907  0.74074074  1
  Ti  Ti13728  1  0.02380950  0.61904764  0.74074074  1
  Ti  Ti13729  1  0.02380950  0.69047621  0.74074074  1
  Ti  Ti13730  1  0.02380950  0.76190479  0.74074074  1
  Ti  Ti13731  1  0.02380950  0.83333336  0.74074074  1
  Ti  Ti13732  1  0.02380950  0.90476193  0.74074074  1
  Ti  Ti13733  1  0.02380950  0.97619050  0.74074074  1
  Ti  Ti13734  1  0.09523807  0.04761907  0.74074074  1
  Ti  Ti13735  1  0.09523807  0.11904764  0.74074074  1
  Ti  Ti13736  1  0.09523807  0.19047621  0.74074074  1
  Ti  Ti13737  1  0.09523807  0.26190479  0.74074074  1
  Ti  Ti13738  1  0.09523807  0.33333336  0.74074074  1
  Ti  Ti13739  1  0.09523807  0.40476193  0.74074074  1
  Ti  Ti13740  1  0.09523807  0.47619050  0.74074074  1
  Ti  Ti13741  1  0.09523807  0.54761907  0.74074074  1
  Ti  Ti13742  1  0.09523807  0.61904764  0.74074074  1
  Ti  Ti13743  1  0.09523807  0.69047621  0.74074074  1
  Ti  Ti13744  1  0.09523807  0.76190479  0.74074074  1
  Ti  Ti13745  1  0.09523807  0.83333336  0.74074074  1
  Ti  Ti13746  1  0.09523807  0.90476193  0.74074074  1
  Ti  Ti13747  1  0.09523807  0.97619050  0.74074074  1
  Ti  Ti13748  1  0.16666664  0.04761907  0.74074074  1
  Ti  Ti13749  1  0.16666664  0.11904764  0.74074074  1
  Ti  Ti13750  1  0.16666664  0.19047621  0.74074074  1
  Ti  Ti13751  1  0.16666664  0.26190479  0.74074074  1
  Ti  Ti13752  1  0.16666664  0.33333336  0.74074074  1
  Ti  Ti13753  1  0.16666664  0.40476193  0.74074074  1
  Ti  Ti13754  1  0.16666664  0.47619050  0.74074074  1
  Ti  Ti13755  1  0.16666664  0.54761907  0.74074074  1
  Ti  Ti13756  1  0.16666664  0.61904764  0.74074074  1
  Ti  Ti13757  1  0.16666664  0.69047621  0.74074074  1
  Ti  Ti13758  1  0.16666664  0.76190479  0.74074074  1
  Ti  Ti13759  1  0.16666664  0.83333336  0.74074074  1
  Ti  Ti13760  1  0.16666664  0.90476193  0.74074074  1
  Ti  Ti13761  1  0.16666664  0.97619050  0.74074074  1
  Ti  Ti13762  1  0.23809521  0.04761907  0.74074074  1
  Ti  Ti13763  1  0.23809521  0.11904764  0.74074074  1
  Ti  Ti13764  1  0.23809521  0.19047621  0.74074074  1
  Ti  Ti13765  1  0.23809521  0.26190479  0.74074074  1
  Ti  Ti13766  1  0.23809521  0.33333336  0.74074074  1
  Ti  Ti13767  1  0.23809521  0.40476193  0.74074074  1
  Ti  Ti13768  1  0.23809521  0.47619050  0.74074074  1
  Ti  Ti13769  1  0.23809521  0.54761907  0.74074074  1
  Ti  Ti13770  1  0.23809521  0.61904764  0.74074074  1
  Ti  Ti13771  1  0.23809521  0.69047621  0.74074074  1
  Ti  Ti13772  1  0.23809521  0.76190479  0.74074074  1
  Ti  Ti13773  1  0.23809521  0.83333336  0.74074074  1
  Ti  Ti13774  1  0.23809521  0.90476193  0.74074074  1
  Ti  Ti13775  1  0.23809521  0.97619050  0.74074074  1
  Ti  Ti13776  1  0.30952379  0.04761907  0.74074074  1
  Ti  Ti13777  1  0.30952379  0.11904764  0.74074074  1
  Ti  Ti13778  1  0.30952379  0.19047621  0.74074074  1
  Ti  Ti13779  1  0.30952379  0.26190479  0.74074074  1
  Ti  Ti13780  1  0.30952379  0.33333336  0.74074074  1
  Ti  Ti13781  1  0.30952379  0.40476193  0.74074074  1
  Ti  Ti13782  1  0.30952379  0.47619050  0.74074074  1
  Ti  Ti13783  1  0.30952379  0.54761907  0.74074074  1
  Ti  Ti13784  1  0.30952379  0.61904764  0.74074074  1
  Ti  Ti13785  1  0.30952379  0.69047621  0.74074074  1
  Ti  Ti13786  1  0.30952379  0.76190479  0.74074074  1
  Ti  Ti13787  1  0.30952379  0.83333336  0.74074074  1
  Ti  Ti13788  1  0.30952379  0.90476193  0.74074074  1
  Ti  Ti13789  1  0.30952379  0.97619050  0.74074074  1
  Ti  Ti13790  1  0.38095236  0.04761907  0.74074074  1
  Ti  Ti13791  1  0.38095236  0.11904764  0.74074074  1
  Ti  Ti13792  1  0.38095236  0.19047621  0.74074074  1
  Ti  Ti13793  1  0.38095236  0.26190479  0.74074074  1
  Ti  Ti13794  1  0.38095236  0.33333336  0.74074074  1
  Ti  Ti13795  1  0.38095236  0.40476193  0.74074074  1
  Ti  Ti13796  1  0.38095236  0.47619050  0.74074074  1
  Ti  Ti13797  1  0.38095236  0.54761907  0.74074074  1
  Ti  Ti13798  1  0.38095236  0.61904764  0.74074074  1
  Ti  Ti13799  1  0.38095236  0.69047621  0.74074074  1
  Ti  Ti13800  1  0.38095236  0.76190479  0.74074074  1
  Ti  Ti13801  1  0.38095236  0.83333336  0.74074074  1
  Ti  Ti13802  1  0.38095236  0.90476193  0.74074074  1
  Ti  Ti13803  1  0.38095236  0.97619050  0.74074074  1
  Ti  Ti13804  1  0.45238093  0.04761907  0.74074074  1
  Ti  Ti13805  1  0.45238093  0.11904764  0.74074074  1
  Ti  Ti13806  1  0.45238093  0.19047621  0.74074074  1
  Ti  Ti13807  1  0.45238093  0.26190479  0.74074074  1
  Ti  Ti13808  1  0.45238093  0.33333336  0.74074074  1
  Ti  Ti13809  1  0.45238093  0.40476193  0.74074074  1
  Ti  Ti13810  1  0.45238093  0.47619050  0.74074074  1
  Ti  Ti13811  1  0.45238093  0.54761907  0.74074074  1
  Ti  Ti13812  1  0.45238093  0.61904764  0.74074074  1
  Ti  Ti13813  1  0.45238093  0.69047621  0.74074074  1
  Ti  Ti13814  1  0.45238093  0.76190479  0.74074074  1
  Ti  Ti13815  1  0.45238093  0.83333336  0.74074074  1
  Ti  Ti13816  1  0.45238093  0.90476193  0.74074074  1
  Ti  Ti13817  1  0.45238093  0.97619050  0.74074074  1
  Ti  Ti13818  1  0.52380950  0.04761907  0.74074074  1
  Ti  Ti13819  1  0.52380950  0.11904764  0.74074074  1
  Ti  Ti13820  1  0.52380950  0.19047621  0.74074074  1
  Ti  Ti13821  1  0.52380950  0.26190479  0.74074074  1
  Ti  Ti13822  1  0.52380950  0.33333336  0.74074074  1
  Ti  Ti13823  1  0.52380950  0.40476193  0.74074074  1
  Ti  Ti13824  1  0.52380950  0.47619050  0.74074074  1
  Ti  Ti13825  1  0.52380950  0.54761907  0.74074074  1
  Ti  Ti13826  1  0.52380950  0.61904764  0.74074074  1
  Ti  Ti13827  1  0.52380950  0.69047621  0.74074074  1
  Ti  Ti13828  1  0.52380950  0.76190479  0.74074074  1
  Ti  Ti13829  1  0.52380950  0.83333336  0.74074074  1
  Ti  Ti13830  1  0.52380950  0.90476193  0.74074074  1
  Ti  Ti13831  1  0.52380950  0.97619050  0.74074074  1
  Ti  Ti13832  1  0.59523807  0.04761907  0.74074074  1
  Ti  Ti13833  1  0.59523807  0.11904764  0.74074074  1
  Ti  Ti13834  1  0.59523807  0.19047621  0.74074074  1
  Ti  Ti13835  1  0.59523807  0.26190479  0.74074074  1
  Ti  Ti13836  1  0.59523807  0.33333336  0.74074074  1
  Ti  Ti13837  1  0.59523807  0.40476193  0.74074074  1
  Ti  Ti13838  1  0.59523807  0.47619050  0.74074074  1
  Ti  Ti13839  1  0.59523807  0.54761907  0.74074074  1
  Ti  Ti13840  1  0.59523807  0.61904764  0.74074074  1
  Ti  Ti13841  1  0.59523807  0.69047621  0.74074074  1
  Ti  Ti13842  1  0.59523807  0.76190479  0.74074074  1
  Ti  Ti13843  1  0.59523807  0.83333336  0.74074074  1
  Ti  Ti13844  1  0.59523807  0.90476193  0.74074074  1
  Ti  Ti13845  1  0.59523807  0.97619050  0.74074074  1
  Ti  Ti13846  1  0.66666664  0.04761907  0.74074074  1
  Ti  Ti13847  1  0.66666664  0.11904764  0.74074074  1
  Ti  Ti13848  1  0.66666664  0.19047621  0.74074074  1
  Ti  Ti13849  1  0.66666664  0.26190479  0.74074074  1
  Ti  Ti13850  1  0.66666664  0.33333336  0.74074074  1
  Ti  Ti13851  1  0.66666664  0.40476193  0.74074074  1
  Ti  Ti13852  1  0.66666664  0.47619050  0.74074074  1
  Ti  Ti13853  1  0.66666664  0.54761907  0.74074074  1
  Ti  Ti13854  1  0.66666664  0.61904764  0.74074074  1
  Ti  Ti13855  1  0.66666664  0.69047621  0.74074074  1
  Ti  Ti13856  1  0.66666664  0.76190479  0.74074074  1
  Ti  Ti13857  1  0.66666664  0.83333336  0.74074074  1
  Ti  Ti13858  1  0.66666664  0.90476193  0.74074074  1
  Ti  Ti13859  1  0.66666664  0.97619050  0.74074074  1
  Ti  Ti13860  1  0.73809521  0.04761907  0.74074074  1
  Ti  Ti13861  1  0.73809521  0.11904764  0.74074074  1
  Ti  Ti13862  1  0.73809521  0.19047621  0.74074074  1
  Ti  Ti13863  1  0.73809521  0.26190479  0.74074074  1
  Ti  Ti13864  1  0.73809521  0.33333336  0.74074074  1
  Ti  Ti13865  1  0.73809521  0.40476193  0.74074074  1
  Ti  Ti13866  1  0.73809521  0.47619050  0.74074074  1
  Ti  Ti13867  1  0.73809521  0.54761907  0.74074074  1
  Ti  Ti13868  1  0.73809521  0.61904764  0.74074074  1
  Ti  Ti13869  1  0.73809521  0.69047621  0.74074074  1
  Ti  Ti13870  1  0.73809521  0.76190479  0.74074074  1
  Ti  Ti13871  1  0.73809521  0.83333336  0.74074074  1
  Ti  Ti13872  1  0.73809521  0.90476193  0.74074074  1
  Ti  Ti13873  1  0.73809521  0.97619050  0.74074074  1
  Ti  Ti13874  1  0.80952379  0.04761907  0.74074074  1
  Ti  Ti13875  1  0.80952379  0.11904764  0.74074074  1
  Ti  Ti13876  1  0.80952379  0.19047621  0.74074074  1
  Ti  Ti13877  1  0.80952379  0.26190479  0.74074074  1
  Ti  Ti13878  1  0.80952379  0.33333336  0.74074074  1
  Ti  Ti13879  1  0.80952379  0.40476193  0.74074074  1
  Ti  Ti13880  1  0.80952379  0.47619050  0.74074074  1
  Ti  Ti13881  1  0.80952379  0.54761907  0.74074074  1
  Ti  Ti13882  1  0.80952379  0.61904764  0.74074074  1
  Ti  Ti13883  1  0.80952379  0.69047621  0.74074074  1
  Ti  Ti13884  1  0.80952379  0.76190479  0.74074074  1
  Ti  Ti13885  1  0.80952379  0.83333336  0.74074074  1
  Ti  Ti13886  1  0.80952379  0.90476193  0.74074074  1
  Ti  Ti13887  1  0.80952379  0.97619050  0.74074074  1
  Ti  Ti13888  1  0.88095236  0.04761907  0.74074074  1
  Ti  Ti13889  1  0.88095236  0.11904764  0.74074074  1
  Ti  Ti13890  1  0.88095236  0.19047621  0.74074074  1
  Ti  Ti13891  1  0.88095236  0.26190479  0.74074074  1
  Ti  Ti13892  1  0.88095236  0.33333336  0.74074074  1
  Ti  Ti13893  1  0.88095236  0.40476193  0.74074074  1
  Ti  Ti13894  1  0.88095236  0.47619050  0.74074074  1
  Ti  Ti13895  1  0.88095236  0.54761907  0.74074074  1
  Ti  Ti13896  1  0.88095236  0.61904764  0.74074074  1
  Ti  Ti13897  1  0.88095236  0.69047621  0.74074074  1
  Ti  Ti13898  1  0.88095236  0.76190479  0.74074074  1
  Ti  Ti13899  1  0.88095236  0.83333336  0.74074074  1
  Ti  Ti13900  1  0.88095236  0.90476193  0.74074074  1
  Ti  Ti13901  1  0.88095236  0.97619050  0.74074074  1
  Ti  Ti13902  1  0.95238093  0.04761907  0.74074074  1
  Ti  Ti13903  1  0.95238093  0.11904764  0.74074074  1
  Ti  Ti13904  1  0.95238093  0.19047621  0.74074074  1
  Ti  Ti13905  1  0.95238093  0.26190479  0.74074074  1
  Ti  Ti13906  1  0.95238093  0.33333336  0.74074074  1
  Ti  Ti13907  1  0.95238093  0.40476193  0.74074074  1
  Ti  Ti13908  1  0.95238093  0.47619050  0.74074074  1
  Ti  Ti13909  1  0.95238093  0.54761907  0.74074074  1
  Ti  Ti13910  1  0.95238093  0.61904764  0.74074074  1
  Ti  Ti13911  1  0.95238093  0.69047621  0.74074074  1
  Ti  Ti13912  1  0.95238093  0.76190479  0.74074074  1
  Ti  Ti13913  1  0.95238093  0.83333336  0.74074074  1
  Ti  Ti13914  1  0.95238093  0.90476193  0.74074074  1
  Ti  Ti13915  1  0.95238093  0.97619050  0.74074074  1
  Ti  Ti13916  1  0.04761907  0.02380950  0.74074074  1
  Ti  Ti13917  1  0.04761907  0.09523807  0.74074074  1
  Ti  Ti13918  1  0.04761907  0.16666664  0.74074074  1
  Ti  Ti13919  1  0.04761907  0.23809521  0.74074074  1
  Ti  Ti13920  1  0.04761907  0.30952379  0.74074074  1
  Ti  Ti13921  1  0.04761907  0.38095236  0.74074074  1
  Ti  Ti13922  1  0.04761907  0.45238093  0.74074074  1
  Ti  Ti13923  1  0.04761907  0.52380950  0.74074074  1
  Ti  Ti13924  1  0.04761907  0.59523807  0.74074074  1
  Ti  Ti13925  1  0.04761907  0.66666664  0.74074074  1
  Ti  Ti13926  1  0.04761907  0.73809521  0.74074074  1
  Ti  Ti13927  1  0.04761907  0.80952379  0.74074074  1
  Ti  Ti13928  1  0.04761907  0.88095236  0.74074074  1
  Ti  Ti13929  1  0.04761907  0.95238093  0.74074074  1
  Ti  Ti13930  1  0.11904764  0.02380950  0.74074074  1
  Ti  Ti13931  1  0.11904764  0.09523807  0.74074074  1
  Ti  Ti13932  1  0.11904764  0.16666664  0.74074074  1
  Ti  Ti13933  1  0.11904764  0.23809521  0.74074074  1
  Ti  Ti13934  1  0.11904764  0.30952379  0.74074074  1
  Ti  Ti13935  1  0.11904764  0.38095236  0.74074074  1
  Ti  Ti13936  1  0.11904764  0.45238093  0.74074074  1
  Ti  Ti13937  1  0.11904764  0.52380950  0.74074074  1
  Ti  Ti13938  1  0.11904764  0.59523807  0.74074074  1
  Ti  Ti13939  1  0.11904764  0.66666664  0.74074074  1
  Ti  Ti13940  1  0.11904764  0.73809521  0.74074074  1
  Ti  Ti13941  1  0.11904764  0.80952379  0.74074074  1
  Ti  Ti13942  1  0.11904764  0.88095236  0.74074074  1
  Ti  Ti13943  1  0.11904764  0.95238093  0.74074074  1
  Ti  Ti13944  1  0.19047621  0.02380950  0.74074074  1
  Ti  Ti13945  1  0.19047621  0.09523807  0.74074074  1
  Ti  Ti13946  1  0.19047621  0.16666664  0.74074074  1
  Ti  Ti13947  1  0.19047621  0.23809521  0.74074074  1
  Ti  Ti13948  1  0.19047621  0.30952379  0.74074074  1
  Ti  Ti13949  1  0.19047621  0.38095236  0.74074074  1
  Ti  Ti13950  1  0.19047621  0.45238093  0.74074074  1
  Ti  Ti13951  1  0.19047621  0.52380950  0.74074074  1
  Ti  Ti13952  1  0.19047621  0.59523807  0.74074074  1
  Ti  Ti13953  1  0.19047621  0.66666664  0.74074074  1
  Ti  Ti13954  1  0.19047621  0.73809521  0.74074074  1
  Ti  Ti13955  1  0.19047621  0.80952379  0.74074074  1
  Ti  Ti13956  1  0.19047621  0.88095236  0.74074074  1
  Ti  Ti13957  1  0.19047621  0.95238093  0.74074074  1
  Ti  Ti13958  1  0.26190479  0.02380950  0.74074074  1
  Ti  Ti13959  1  0.26190479  0.09523807  0.74074074  1
  Ti  Ti13960  1  0.26190479  0.16666664  0.74074074  1
  Ti  Ti13961  1  0.26190479  0.23809521  0.74074074  1
  Ti  Ti13962  1  0.26190479  0.30952379  0.74074074  1
  Ti  Ti13963  1  0.26190479  0.38095236  0.74074074  1
  Ti  Ti13964  1  0.26190479  0.45238093  0.74074074  1
  Ti  Ti13965  1  0.26190479  0.52380950  0.74074074  1
  Ti  Ti13966  1  0.26190479  0.59523807  0.74074074  1
  Ti  Ti13967  1  0.26190479  0.66666664  0.74074074  1
  Ti  Ti13968  1  0.26190479  0.73809521  0.74074074  1
  Ti  Ti13969  1  0.26190479  0.80952379  0.74074074  1
  Ti  Ti13970  1  0.26190479  0.88095236  0.74074074  1
  Ti  Ti13971  1  0.26190479  0.95238093  0.74074074  1
  Ti  Ti13972  1  0.33333336  0.02380950  0.74074074  1
  Ti  Ti13973  1  0.33333336  0.09523807  0.74074074  1
  Ti  Ti13974  1  0.33333336  0.16666664  0.74074074  1
  Ti  Ti13975  1  0.33333336  0.23809521  0.74074074  1
  Ti  Ti13976  1  0.33333336  0.30952379  0.74074074  1
  Ti  Ti13977  1  0.33333336  0.38095236  0.74074074  1
  Ti  Ti13978  1  0.33333336  0.45238093  0.74074074  1
  Ti  Ti13979  1  0.33333336  0.52380950  0.74074074  1
  Ti  Ti13980  1  0.33333336  0.59523807  0.74074074  1
  Ti  Ti13981  1  0.33333336  0.66666664  0.74074074  1
  Ti  Ti13982  1  0.33333336  0.73809521  0.74074074  1
  Ti  Ti13983  1  0.33333336  0.80952379  0.74074074  1
  Ti  Ti13984  1  0.33333336  0.88095236  0.74074074  1
  Ti  Ti13985  1  0.33333336  0.95238093  0.74074074  1
  Ti  Ti13986  1  0.40476193  0.02380950  0.74074074  1
  Ti  Ti13987  1  0.40476193  0.09523807  0.74074074  1
  Ti  Ti13988  1  0.40476193  0.16666664  0.74074074  1
  Ti  Ti13989  1  0.40476193  0.23809521  0.74074074  1
  Ti  Ti13990  1  0.40476193  0.30952379  0.74074074  1
  Ti  Ti13991  1  0.40476193  0.38095236  0.74074074  1
  Ti  Ti13992  1  0.40476193  0.45238093  0.74074074  1
  Ti  Ti13993  1  0.40476193  0.52380950  0.74074074  1
  Ti  Ti13994  1  0.40476193  0.59523807  0.74074074  1
  Ti  Ti13995  1  0.40476193  0.66666664  0.74074074  1
  Ti  Ti13996  1  0.40476193  0.73809521  0.74074074  1
  Ti  Ti13997  1  0.40476193  0.80952379  0.74074074  1
  Ti  Ti13998  1  0.40476193  0.88095236  0.74074074  1
  Ti  Ti13999  1  0.40476193  0.95238093  0.74074074  1
  Ti  Ti14000  1  0.47619050  0.02380950  0.74074074  1
  Ti  Ti14001  1  0.47619050  0.09523807  0.74074074  1
  Ti  Ti14002  1  0.47619050  0.16666664  0.74074074  1
  Ti  Ti14003  1  0.47619050  0.23809521  0.74074074  1
  Ti  Ti14004  1  0.47619050  0.30952379  0.74074074  1
  Ti  Ti14005  1  0.47619050  0.38095236  0.74074074  1
  Ti  Ti14006  1  0.47619050  0.45238093  0.74074074  1
  Ti  Ti14007  1  0.47619050  0.52380950  0.74074074  1
  Ti  Ti14008  1  0.47619050  0.59523807  0.74074074  1
  Ti  Ti14009  1  0.47619050  0.66666664  0.74074074  1
  Ti  Ti14010  1  0.47619050  0.73809521  0.74074074  1
  Ti  Ti14011  1  0.47619050  0.80952379  0.74074074  1
  Ti  Ti14012  1  0.47619050  0.88095236  0.74074074  1
  Ti  Ti14013  1  0.47619050  0.95238093  0.74074074  1
  Ti  Ti14014  1  0.54761907  0.02380950  0.74074074  1
  Ti  Ti14015  1  0.54761907  0.09523807  0.74074074  1
  Ti  Ti14016  1  0.54761907  0.16666664  0.74074074  1
  Ti  Ti14017  1  0.54761907  0.23809521  0.74074074  1
  Ti  Ti14018  1  0.54761907  0.30952379  0.74074074  1
  Ti  Ti14019  1  0.54761907  0.38095236  0.74074074  1
  Ti  Ti14020  1  0.54761907  0.45238093  0.74074074  1
  Ti  Ti14021  1  0.54761907  0.52380950  0.74074074  1
  Ti  Ti14022  1  0.54761907  0.59523807  0.74074074  1
  Ti  Ti14023  1  0.54761907  0.66666664  0.74074074  1
  Ti  Ti14024  1  0.54761907  0.73809521  0.74074074  1
  Ti  Ti14025  1  0.54761907  0.80952379  0.74074074  1
  Ti  Ti14026  1  0.54761907  0.88095236  0.74074074  1
  Ti  Ti14027  1  0.54761907  0.95238093  0.74074074  1
  Ti  Ti14028  1  0.61904764  0.02380950  0.74074074  1
  Ti  Ti14029  1  0.61904764  0.09523807  0.74074074  1
  Ti  Ti14030  1  0.61904764  0.16666664  0.74074074  1
  Ti  Ti14031  1  0.61904764  0.23809521  0.74074074  1
  Ti  Ti14032  1  0.61904764  0.30952379  0.74074074  1
  Ti  Ti14033  1  0.61904764  0.38095236  0.74074074  1
  Ti  Ti14034  1  0.61904764  0.45238093  0.74074074  1
  Ti  Ti14035  1  0.61904764  0.52380950  0.74074074  1
  Ti  Ti14036  1  0.61904764  0.59523807  0.74074074  1
  Ti  Ti14037  1  0.61904764  0.66666664  0.74074074  1
  Ti  Ti14038  1  0.61904764  0.73809521  0.74074074  1
  Ti  Ti14039  1  0.61904764  0.80952379  0.74074074  1
  Ti  Ti14040  1  0.61904764  0.88095236  0.74074074  1
  Ti  Ti14041  1  0.61904764  0.95238093  0.74074074  1
  Ti  Ti14042  1  0.69047621  0.02380950  0.74074074  1
  Ti  Ti14043  1  0.69047621  0.09523807  0.74074074  1
  Ti  Ti14044  1  0.69047621  0.16666664  0.74074074  1
  Ti  Ti14045  1  0.69047621  0.23809521  0.74074074  1
  Ti  Ti14046  1  0.69047621  0.30952379  0.74074074  1
  Ti  Ti14047  1  0.69047621  0.38095236  0.74074074  1
  Ti  Ti14048  1  0.69047621  0.45238093  0.74074074  1
  Ti  Ti14049  1  0.69047621  0.52380950  0.74074074  1
  Ti  Ti14050  1  0.69047621  0.59523807  0.74074074  1
  Ti  Ti14051  1  0.69047621  0.66666664  0.74074074  1
  Ti  Ti14052  1  0.69047621  0.73809521  0.74074074  1
  Ti  Ti14053  1  0.69047621  0.80952379  0.74074074  1
  Ti  Ti14054  1  0.69047621  0.88095236  0.74074074  1
  Ti  Ti14055  1  0.69047621  0.95238093  0.74074074  1
  Ti  Ti14056  1  0.76190479  0.02380950  0.74074074  1
  Ti  Ti14057  1  0.76190479  0.09523807  0.74074074  1
  Ti  Ti14058  1  0.76190479  0.16666664  0.74074074  1
  Ti  Ti14059  1  0.76190479  0.23809521  0.74074074  1
  Ti  Ti14060  1  0.76190479  0.30952379  0.74074074  1
  Ti  Ti14061  1  0.76190479  0.38095236  0.74074074  1
  Ti  Ti14062  1  0.76190479  0.45238093  0.74074074  1
  Ti  Ti14063  1  0.76190479  0.52380950  0.74074074  1
  Ti  Ti14064  1  0.76190479  0.59523807  0.74074074  1
  Ti  Ti14065  1  0.76190479  0.66666664  0.74074074  1
  Ti  Ti14066  1  0.76190479  0.73809521  0.74074074  1
  Ti  Ti14067  1  0.76190479  0.80952379  0.74074074  1
  Ti  Ti14068  1  0.76190479  0.88095236  0.74074074  1
  Ti  Ti14069  1  0.76190479  0.95238093  0.74074074  1
  Ti  Ti14070  1  0.83333336  0.02380950  0.74074074  1
  Ti  Ti14071  1  0.83333336  0.09523807  0.74074074  1
  Ti  Ti14072  1  0.83333336  0.16666664  0.74074074  1
  Ti  Ti14073  1  0.83333336  0.23809521  0.74074074  1
  Ti  Ti14074  1  0.83333336  0.30952379  0.74074074  1
  Ti  Ti14075  1  0.83333336  0.38095236  0.74074074  1
  Ti  Ti14076  1  0.83333336  0.45238093  0.74074074  1
  Ti  Ti14077  1  0.83333336  0.52380950  0.74074074  1
  Ti  Ti14078  1  0.83333336  0.59523807  0.74074074  1
  Ti  Ti14079  1  0.83333336  0.66666664  0.74074074  1
  Ti  Ti14080  1  0.83333336  0.73809521  0.74074074  1
  Ti  Ti14081  1  0.83333336  0.80952379  0.74074074  1
  Ti  Ti14082  1  0.83333336  0.88095236  0.74074074  1
  Ti  Ti14083  1  0.83333336  0.95238093  0.74074074  1
  Ti  Ti14084  1  0.90476193  0.02380950  0.74074074  1
  Ti  Ti14085  1  0.90476193  0.09523807  0.74074074  1
  Ti  Ti14086  1  0.90476193  0.16666664  0.74074074  1
  Ti  Ti14087  1  0.90476193  0.23809521  0.74074074  1
  Ti  Ti14088  1  0.90476193  0.30952379  0.74074074  1
  Ti  Ti14089  1  0.90476193  0.38095236  0.74074074  1
  Ti  Ti14090  1  0.90476193  0.45238093  0.74074074  1
  Ti  Ti14091  1  0.90476193  0.52380950  0.74074074  1
  Ti  Ti14092  1  0.90476193  0.59523807  0.74074074  1
  Ti  Ti14093  1  0.90476193  0.66666664  0.74074074  1
  Ti  Ti14094  1  0.90476193  0.73809521  0.74074074  1
  Ti  Ti14095  1  0.90476193  0.80952379  0.74074074  1
  Ti  Ti14096  1  0.90476193  0.88095236  0.74074074  1
  Ti  Ti14097  1  0.90476193  0.95238093  0.74074074  1
  Ti  Ti14098  1  0.97619050  0.02380950  0.74074074  1
  Ti  Ti14099  1  0.97619050  0.09523807  0.74074074  1
  Ti  Ti14100  1  0.97619050  0.16666664  0.74074074  1
  Ti  Ti14101  1  0.97619050  0.23809521  0.74074074  1
  Ti  Ti14102  1  0.97619050  0.30952379  0.74074074  1
  Ti  Ti14103  1  0.97619050  0.38095236  0.74074074  1
  Ti  Ti14104  1  0.97619050  0.45238093  0.74074074  1
  Ti  Ti14105  1  0.97619050  0.52380950  0.74074074  1
  Ti  Ti14106  1  0.97619050  0.59523807  0.74074074  1
  Ti  Ti14107  1  0.97619050  0.66666664  0.74074074  1
  Ti  Ti14108  1  0.97619050  0.73809521  0.74074074  1
  Ti  Ti14109  1  0.97619050  0.80952379  0.74074074  1
  Ti  Ti14110  1  0.97619050  0.88095236  0.74074074  1
  Ti  Ti14111  1  0.97619050  0.95238093  0.74074074  1
  Ti  Ti14112  1  0.00000000  0.00000000  0.77407407  1
  Ti  Ti14113  1  0.00000000  0.07142857  0.77407407  1
  Ti  Ti14114  1  0.00000000  0.14285714  0.77407407  1
  Ti  Ti14115  1  0.00000000  0.21428571  0.77407407  1
  Ti  Ti14116  1  0.00000000  0.28571429  0.77407407  1
  Ti  Ti14117  1  0.00000000  0.35714286  0.77407407  1
  Ti  Ti14118  1  0.00000000  0.42857143  0.77407407  1
  Ti  Ti14119  1  0.00000000  0.50000000  0.77407407  1
  Ti  Ti14120  1  0.00000000  0.57142857  0.77407407  1
  Ti  Ti14121  1  0.00000000  0.64285714  0.77407407  1
  Ti  Ti14122  1  0.00000000  0.71428571  0.77407407  1
  Ti  Ti14123  1  1.00000000  0.78571429  0.77407407  1
  Ti  Ti14124  1  0.00000000  0.85714286  0.77407407  1
  Ti  Ti14125  1  0.00000000  0.92857143  0.77407407  1
  Ti  Ti14126  1  0.07142857  0.00000000  0.77407407  1
  Ti  Ti14127  1  0.07142857  0.07142857  0.77407407  1
  Ti  Ti14128  1  0.07142857  0.14285714  0.77407407  1
  Ti  Ti14129  1  0.07142857  0.21428571  0.77407407  1
  Ti  Ti14130  1  0.07142857  0.28571429  0.77407407  1
  Ti  Ti14131  1  0.07142857  0.35714286  0.77407407  1
  Ti  Ti14132  1  0.07142857  0.42857143  0.77407407  1
  Ti  Ti14133  1  0.07142857  0.50000000  0.77407407  1
  Ti  Ti14134  1  0.07142857  0.57142857  0.77407407  1
  Ti  Ti14135  1  0.07142857  0.64285714  0.77407407  1
  Ti  Ti14136  1  0.07142857  0.71428571  0.77407407  1
  Ti  Ti14137  1  0.07142857  0.78571429  0.77407407  1
  Ti  Ti14138  1  0.07142857  0.85714286  0.77407407  1
  Ti  Ti14139  1  0.07142857  0.92857143  0.77407407  1
  Ti  Ti14140  1  0.14285714  0.00000000  0.77407407  1
  Ti  Ti14141  1  0.14285714  0.07142857  0.77407407  1
  Ti  Ti14142  1  0.14285714  0.14285714  0.77407407  1
  Ti  Ti14143  1  0.14285714  0.21428571  0.77407407  1
  Ti  Ti14144  1  0.14285714  0.28571429  0.77407407  1
  Ti  Ti14145  1  0.14285714  0.35714286  0.77407407  1
  Ti  Ti14146  1  0.14285714  0.42857143  0.77407407  1
  Ti  Ti14147  1  0.14285714  0.50000000  0.77407407  1
  Ti  Ti14148  1  0.14285714  0.57142857  0.77407407  1
  Ti  Ti14149  1  0.14285714  0.64285714  0.77407407  1
  Ti  Ti14150  1  0.14285714  0.71428571  0.77407407  1
  Ti  Ti14151  1  0.14285714  0.78571429  0.77407407  1
  Ti  Ti14152  1  0.14285714  0.85714286  0.77407407  1
  Ti  Ti14153  1  0.14285714  0.92857143  0.77407407  1
  Ti  Ti14154  1  0.21428571  0.00000000  0.77407407  1
  Ti  Ti14155  1  0.21428571  0.07142857  0.77407407  1
  Ti  Ti14156  1  0.21428571  0.14285714  0.77407407  1
  Ti  Ti14157  1  0.21428571  0.21428571  0.77407407  1
  Ti  Ti14158  1  0.21428571  0.28571429  0.77407407  1
  Ti  Ti14159  1  0.21428571  0.35714286  0.77407407  1
  Ti  Ti14160  1  0.21428571  0.42857143  0.77407407  1
  Ti  Ti14161  1  0.21428571  0.50000000  0.77407407  1
  Ti  Ti14162  1  0.21428571  0.57142857  0.77407407  1
  Ti  Ti14163  1  0.21428571  0.64285714  0.77407407  1
  Ti  Ti14164  1  0.21428571  0.71428571  0.77407407  1
  Ti  Ti14165  1  0.21428571  0.78571429  0.77407407  1
  Ti  Ti14166  1  0.21428571  0.85714286  0.77407407  1
  Ti  Ti14167  1  0.21428571  0.92857143  0.77407407  1
  Ti  Ti14168  1  0.28571429  0.00000000  0.77407407  1
  Ti  Ti14169  1  0.28571429  0.07142857  0.77407407  1
  Ti  Ti14170  1  0.28571429  0.14285714  0.77407407  1
  Ti  Ti14171  1  0.28571429  0.21428571  0.77407407  1
  Ti  Ti14172  1  0.28571429  0.28571429  0.77407407  1
  Ti  Ti14173  1  0.28571429  0.35714286  0.77407407  1
  Ti  Ti14174  1  0.28571429  0.42857143  0.77407407  1
  Ti  Ti14175  1  0.28571429  0.50000000  0.77407407  1
  Ti  Ti14176  1  0.28571429  0.57142857  0.77407407  1
  Ti  Ti14177  1  0.28571429  0.64285714  0.77407407  1
  Ti  Ti14178  1  0.28571429  0.71428571  0.77407407  1
  Ti  Ti14179  1  0.28571429  0.78571429  0.77407407  1
  Ti  Ti14180  1  0.28571429  0.85714286  0.77407407  1
  Ti  Ti14181  1  0.28571429  0.92857143  0.77407407  1
  Ti  Ti14182  1  0.35714286  0.00000000  0.77407407  1
  Ti  Ti14183  1  0.35714286  0.07142857  0.77407407  1
  Ti  Ti14184  1  0.35714286  0.14285714  0.77407407  1
  Ti  Ti14185  1  0.35714286  0.21428571  0.77407407  1
  Ti  Ti14186  1  0.35714286  0.28571429  0.77407407  1
  Ti  Ti14187  1  0.35714286  0.35714286  0.77407407  1
  Ti  Ti14188  1  0.35714286  0.42857143  0.77407407  1
  Ti  Ti14189  1  0.35714286  0.50000000  0.77407407  1
  Ti  Ti14190  1  0.35714286  0.57142857  0.77407407  1
  Ti  Ti14191  1  0.35714286  0.64285714  0.77407407  1
  Ti  Ti14192  1  0.35714286  0.71428571  0.77407407  1
  Ti  Ti14193  1  0.35714286  0.78571429  0.77407407  1
  Ti  Ti14194  1  0.35714286  0.85714286  0.77407407  1
  Ti  Ti14195  1  0.35714286  0.92857143  0.77407407  1
  Ti  Ti14196  1  0.42857143  0.00000000  0.77407407  1
  Ti  Ti14197  1  0.42857143  0.07142857  0.77407407  1
  Ti  Ti14198  1  0.42857143  0.14285714  0.77407407  1
  Ti  Ti14199  1  0.42857143  0.21428571  0.77407407  1
  Ti  Ti14200  1  0.42857143  0.28571429  0.77407407  1
  Ti  Ti14201  1  0.42857143  0.35714286  0.77407407  1
  Ti  Ti14202  1  0.42857143  0.42857143  0.77407407  1
  Ti  Ti14203  1  0.42857143  0.50000000  0.77407407  1
  Ti  Ti14204  1  0.42857143  0.57142857  0.77407407  1
  Ti  Ti14205  1  0.42857143  0.64285714  0.77407407  1
  Ti  Ti14206  1  0.42857143  0.71428571  0.77407407  1
  Ti  Ti14207  1  0.42857143  0.78571429  0.77407407  1
  Ti  Ti14208  1  0.42857143  0.85714286  0.77407407  1
  Ti  Ti14209  1  0.42857143  0.92857143  0.77407407  1
  Ti  Ti14210  1  0.50000000  0.00000000  0.77407407  1
  Ti  Ti14211  1  0.50000000  0.07142857  0.77407407  1
  Ti  Ti14212  1  0.50000000  0.14285714  0.77407407  1
  Ti  Ti14213  1  0.50000000  0.21428571  0.77407407  1
  Ti  Ti14214  1  0.50000000  0.28571429  0.77407407  1
  Ti  Ti14215  1  0.50000000  0.35714286  0.77407407  1
  Ti  Ti14216  1  0.50000000  0.42857143  0.77407407  1
  Ti  Ti14217  1  0.50000000  0.50000000  0.77407407  1
  Ti  Ti14218  1  0.50000000  0.57142857  0.77407407  1
  Ti  Ti14219  1  0.50000000  0.64285714  0.77407407  1
  Ti  Ti14220  1  0.50000000  0.71428571  0.77407407  1
  Ti  Ti14221  1  0.50000000  0.78571429  0.77407407  1
  Ti  Ti14222  1  0.50000000  0.85714286  0.77407407  1
  Ti  Ti14223  1  0.50000000  0.92857143  0.77407407  1
  Ti  Ti14224  1  0.57142857  0.00000000  0.77407407  1
  Ti  Ti14225  1  0.57142857  0.07142857  0.77407407  1
  Ti  Ti14226  1  0.57142857  0.14285714  0.77407407  1
  Ti  Ti14227  1  0.57142857  0.21428571  0.77407407  1
  Ti  Ti14228  1  0.57142857  0.28571429  0.77407407  1
  Ti  Ti14229  1  0.57142857  0.35714286  0.77407407  1
  Ti  Ti14230  1  0.57142857  0.42857143  0.77407407  1
  Ti  Ti14231  1  0.57142857  0.50000000  0.77407407  1
  Ti  Ti14232  1  0.57142857  0.57142857  0.77407407  1
  Ti  Ti14233  1  0.57142857  0.64285714  0.77407407  1
  Ti  Ti14234  1  0.57142857  0.71428571  0.77407407  1
  Ti  Ti14235  1  0.57142857  0.78571429  0.77407407  1
  Ti  Ti14236  1  0.57142857  0.85714286  0.77407407  1
  Ti  Ti14237  1  0.57142857  0.92857143  0.77407407  1
  Ti  Ti14238  1  0.64285714  0.00000000  0.77407407  1
  Ti  Ti14239  1  0.64285714  0.07142857  0.77407407  1
  Ti  Ti14240  1  0.64285714  0.14285714  0.77407407  1
  Ti  Ti14241  1  0.64285714  0.21428571  0.77407407  1
  Ti  Ti14242  1  0.64285714  0.28571429  0.77407407  1
  Ti  Ti14243  1  0.64285714  0.35714286  0.77407407  1
  Ti  Ti14244  1  0.64285714  0.42857143  0.77407407  1
  Ti  Ti14245  1  0.64285714  0.50000000  0.77407407  1
  Ti  Ti14246  1  0.64285714  0.57142857  0.77407407  1
  Ti  Ti14247  1  0.64285714  0.64285714  0.77407407  1
  Ti  Ti14248  1  0.64285714  0.71428571  0.77407407  1
  Ti  Ti14249  1  0.64285714  0.78571429  0.77407407  1
  Ti  Ti14250  1  0.64285714  0.85714286  0.77407407  1
  Ti  Ti14251  1  0.64285714  0.92857143  0.77407407  1
  Ti  Ti14252  1  0.71428571  0.00000000  0.77407407  1
  Ti  Ti14253  1  0.71428571  0.07142857  0.77407407  1
  Ti  Ti14254  1  0.71428571  0.14285714  0.77407407  1
  Ti  Ti14255  1  0.71428571  0.21428571  0.77407407  1
  Ti  Ti14256  1  0.71428571  0.28571429  0.77407407  1
  Ti  Ti14257  1  0.71428571  0.35714286  0.77407407  1
  Ti  Ti14258  1  0.71428571  0.42857143  0.77407407  1
  Ti  Ti14259  1  0.71428571  0.50000000  0.77407407  1
  Ti  Ti14260  1  0.71428571  0.57142857  0.77407407  1
  Ti  Ti14261  1  0.71428571  0.64285714  0.77407407  1
  Ti  Ti14262  1  0.71428571  0.71428571  0.77407407  1
  Ti  Ti14263  1  0.71428571  0.78571429  0.77407407  1
  Ti  Ti14264  1  0.71428571  0.85714286  0.77407407  1
  Ti  Ti14265  1  0.71428571  0.92857143  0.77407407  1
  Ti  Ti14266  1  0.78571429  0.00000000  0.77407407  1
  Ti  Ti14267  1  0.78571429  0.07142857  0.77407407  1
  Ti  Ti14268  1  0.78571429  0.14285714  0.77407407  1
  Ti  Ti14269  1  0.78571429  0.21428571  0.77407407  1
  Ti  Ti14270  1  0.78571429  0.28571429  0.77407407  1
  Ti  Ti14271  1  0.78571429  0.35714286  0.77407407  1
  Ti  Ti14272  1  0.78571429  0.42857143  0.77407407  1
  Ti  Ti14273  1  0.78571429  0.50000000  0.77407407  1
  Ti  Ti14274  1  0.78571429  0.57142857  0.77407407  1
  Ti  Ti14275  1  0.78571429  0.64285714  0.77407407  1
  Ti  Ti14276  1  0.78571429  0.71428571  0.77407407  1
  Ti  Ti14277  1  0.78571429  0.78571429  0.77407407  1
  Ti  Ti14278  1  0.78571429  0.85714286  0.77407407  1
  Ti  Ti14279  1  0.78571429  0.92857143  0.77407407  1
  Ti  Ti14280  1  0.85714286  0.00000000  0.77407407  1
  Ti  Ti14281  1  0.85714286  0.07142857  0.77407407  1
  Ti  Ti14282  1  0.85714286  0.14285714  0.77407407  1
  Ti  Ti14283  1  0.85714286  0.21428571  0.77407407  1
  Ti  Ti14284  1  0.85714286  0.28571429  0.77407407  1
  Ti  Ti14285  1  0.85714286  0.35714286  0.77407407  1
  Ti  Ti14286  1  0.85714286  0.42857143  0.77407407  1
  Ti  Ti14287  1  0.85714286  0.50000000  0.77407407  1
  Ti  Ti14288  1  0.85714286  0.57142857  0.77407407  1
  Ti  Ti14289  1  0.85714286  0.64285714  0.77407407  1
  Ti  Ti14290  1  0.85714286  0.71428571  0.77407407  1
  Ti  Ti14291  1  0.85714286  0.78571429  0.77407407  1
  Ti  Ti14292  1  0.85714286  0.85714286  0.77407407  1
  Ti  Ti14293  1  0.85714286  0.92857143  0.77407407  1
  Ti  Ti14294  1  0.92857143  0.00000000  0.77407407  1
  Ti  Ti14295  1  0.92857143  0.07142857  0.77407407  1
  Ti  Ti14296  1  0.92857143  0.14285714  0.77407407  1
  Ti  Ti14297  1  0.92857143  0.21428571  0.77407407  1
  Ti  Ti14298  1  0.92857143  0.28571429  0.77407407  1
  Ti  Ti14299  1  0.92857143  0.35714286  0.77407407  1
  Ti  Ti14300  1  0.92857143  0.42857143  0.77407407  1
  Ti  Ti14301  1  0.92857143  0.50000000  0.77407407  1
  Ti  Ti14302  1  0.92857143  0.57142857  0.77407407  1
  Ti  Ti14303  1  0.92857143  0.64285714  0.77407407  1
  Ti  Ti14304  1  0.92857143  0.71428571  0.77407407  1
  Ti  Ti14305  1  0.92857143  0.78571429  0.77407407  1
  Ti  Ti14306  1  0.92857143  0.85714286  0.77407407  1
  Ti  Ti14307  1  0.92857143  0.92857143  0.77407407  1
  Ti  Ti14308  1  0.02380950  0.04761907  0.76296296  1
  Ti  Ti14309  1  0.02380950  0.11904764  0.76296296  1
  Ti  Ti14310  1  0.02380950  0.19047621  0.76296296  1
  Ti  Ti14311  1  0.02380950  0.26190479  0.76296296  1
  Ti  Ti14312  1  0.02380950  0.33333336  0.76296296  1
  Ti  Ti14313  1  0.02380950  0.40476193  0.76296296  1
  Ti  Ti14314  1  0.02380950  0.47619050  0.76296296  1
  Ti  Ti14315  1  0.02380950  0.54761907  0.76296296  1
  Ti  Ti14316  1  0.02380950  0.61904764  0.76296296  1
  Ti  Ti14317  1  0.02380950  0.69047621  0.76296296  1
  Ti  Ti14318  1  0.02380950  0.76190479  0.76296296  1
  Ti  Ti14319  1  0.02380950  0.83333336  0.76296296  1
  Ti  Ti14320  1  0.02380950  0.90476193  0.76296296  1
  Ti  Ti14321  1  0.02380950  0.97619050  0.76296296  1
  Ti  Ti14322  1  0.09523807  0.04761907  0.76296296  1
  Ti  Ti14323  1  0.09523807  0.11904764  0.76296296  1
  Ti  Ti14324  1  0.09523807  0.19047621  0.76296296  1
  Ti  Ti14325  1  0.09523807  0.26190479  0.76296296  1
  Ti  Ti14326  1  0.09523807  0.33333336  0.76296296  1
  Ti  Ti14327  1  0.09523807  0.40476193  0.76296296  1
  Ti  Ti14328  1  0.09523807  0.47619050  0.76296296  1
  Ti  Ti14329  1  0.09523807  0.54761907  0.76296296  1
  Ti  Ti14330  1  0.09523807  0.61904764  0.76296296  1
  Ti  Ti14331  1  0.09523807  0.69047621  0.76296296  1
  Ti  Ti14332  1  0.09523807  0.76190479  0.76296296  1
  Ti  Ti14333  1  0.09523807  0.83333336  0.76296296  1
  Ti  Ti14334  1  0.09523807  0.90476193  0.76296296  1
  Ti  Ti14335  1  0.09523807  0.97619050  0.76296296  1
  Ti  Ti14336  1  0.16666664  0.04761907  0.76296296  1
  Ti  Ti14337  1  0.16666664  0.11904764  0.76296296  1
  Ti  Ti14338  1  0.16666664  0.19047621  0.76296296  1
  Ti  Ti14339  1  0.16666664  0.26190479  0.76296296  1
  Ti  Ti14340  1  0.16666664  0.33333336  0.76296296  1
  Ti  Ti14341  1  0.16666664  0.40476193  0.76296296  1
  Ti  Ti14342  1  0.16666664  0.47619050  0.76296296  1
  Ti  Ti14343  1  0.16666664  0.54761907  0.76296296  1
  Ti  Ti14344  1  0.16666664  0.61904764  0.76296296  1
  Ti  Ti14345  1  0.16666664  0.69047621  0.76296296  1
  Ti  Ti14346  1  0.16666664  0.76190479  0.76296296  1
  Ti  Ti14347  1  0.16666664  0.83333336  0.76296296  1
  Ti  Ti14348  1  0.16666664  0.90476193  0.76296296  1
  Ti  Ti14349  1  0.16666664  0.97619050  0.76296296  1
  Ti  Ti14350  1  0.23809521  0.04761907  0.76296296  1
  Ti  Ti14351  1  0.23809521  0.11904764  0.76296296  1
  Ti  Ti14352  1  0.23809521  0.19047621  0.76296296  1
  Ti  Ti14353  1  0.23809521  0.26190479  0.76296296  1
  Ti  Ti14354  1  0.23809521  0.33333336  0.76296296  1
  Ti  Ti14355  1  0.23809521  0.40476193  0.76296296  1
  Ti  Ti14356  1  0.23809521  0.47619050  0.76296296  1
  Ti  Ti14357  1  0.23809521  0.54761907  0.76296296  1
  Ti  Ti14358  1  0.23809521  0.61904764  0.76296296  1
  Ti  Ti14359  1  0.23809521  0.69047621  0.76296296  1
  Ti  Ti14360  1  0.23809521  0.76190479  0.76296296  1
  Ti  Ti14361  1  0.23809521  0.83333336  0.76296296  1
  Ti  Ti14362  1  0.23809521  0.90476193  0.76296296  1
  Ti  Ti14363  1  0.23809521  0.97619050  0.76296296  1
  Ti  Ti14364  1  0.30952379  0.04761907  0.76296296  1
  Ti  Ti14365  1  0.30952379  0.11904764  0.76296296  1
  Ti  Ti14366  1  0.30952379  0.19047621  0.76296296  1
  Ti  Ti14367  1  0.30952379  0.26190479  0.76296296  1
  Ti  Ti14368  1  0.30952379  0.33333336  0.76296296  1
  Ti  Ti14369  1  0.30952379  0.40476193  0.76296296  1
  Ti  Ti14370  1  0.30952379  0.47619050  0.76296296  1
  Ti  Ti14371  1  0.30952379  0.54761907  0.76296296  1
  Ti  Ti14372  1  0.30952379  0.61904764  0.76296296  1
  Ti  Ti14373  1  0.30952379  0.69047621  0.76296296  1
  Ti  Ti14374  1  0.30952379  0.76190479  0.76296296  1
  Ti  Ti14375  1  0.30952379  0.83333336  0.76296296  1
  Ti  Ti14376  1  0.30952379  0.90476193  0.76296296  1
  Ti  Ti14377  1  0.30952379  0.97619050  0.76296296  1
  Ti  Ti14378  1  0.38095236  0.04761907  0.76296296  1
  Ti  Ti14379  1  0.38095236  0.11904764  0.76296296  1
  Ti  Ti14380  1  0.38095236  0.19047621  0.76296296  1
  Ti  Ti14381  1  0.38095236  0.26190479  0.76296296  1
  Ti  Ti14382  1  0.38095236  0.33333336  0.76296296  1
  Ti  Ti14383  1  0.38095236  0.40476193  0.76296296  1
  Ti  Ti14384  1  0.38095236  0.47619050  0.76296296  1
  Ti  Ti14385  1  0.38095236  0.54761907  0.76296296  1
  Ti  Ti14386  1  0.38095236  0.61904764  0.76296296  1
  Ti  Ti14387  1  0.38095236  0.69047621  0.76296296  1
  Ti  Ti14388  1  0.38095236  0.76190479  0.76296296  1
  Ti  Ti14389  1  0.38095236  0.83333336  0.76296296  1
  Ti  Ti14390  1  0.38095236  0.90476193  0.76296296  1
  Ti  Ti14391  1  0.38095236  0.97619050  0.76296296  1
  Ti  Ti14392  1  0.45238093  0.04761907  0.76296296  1
  Ti  Ti14393  1  0.45238093  0.11904764  0.76296296  1
  Ti  Ti14394  1  0.45238093  0.19047621  0.76296296  1
  Ti  Ti14395  1  0.45238093  0.26190479  0.76296296  1
  Ti  Ti14396  1  0.45238093  0.33333336  0.76296296  1
  Ti  Ti14397  1  0.45238093  0.40476193  0.76296296  1
  Ti  Ti14398  1  0.45238093  0.47619050  0.76296296  1
  Ti  Ti14399  1  0.45238093  0.54761907  0.76296296  1
  Ti  Ti14400  1  0.45238093  0.61904764  0.76296296  1
  Ti  Ti14401  1  0.45238093  0.69047621  0.76296296  1
  Ti  Ti14402  1  0.45238093  0.76190479  0.76296296  1
  Ti  Ti14403  1  0.45238093  0.83333336  0.76296296  1
  Ti  Ti14404  1  0.45238093  0.90476193  0.76296296  1
  Ti  Ti14405  1  0.45238093  0.97619050  0.76296296  1
  Ti  Ti14406  1  0.52380950  0.04761907  0.76296296  1
  Ti  Ti14407  1  0.52380950  0.11904764  0.76296296  1
  Ti  Ti14408  1  0.52380950  0.19047621  0.76296296  1
  Ti  Ti14409  1  0.52380950  0.26190479  0.76296296  1
  Ti  Ti14410  1  0.52380950  0.33333336  0.76296296  1
  Ti  Ti14411  1  0.52380950  0.40476193  0.76296296  1
  Ti  Ti14412  1  0.52380950  0.47619050  0.76296296  1
  Ti  Ti14413  1  0.52380950  0.54761907  0.76296296  1
  Ti  Ti14414  1  0.52380950  0.61904764  0.76296296  1
  Ti  Ti14415  1  0.52380950  0.69047621  0.76296296  1
  Ti  Ti14416  1  0.52380950  0.76190479  0.76296296  1
  Ti  Ti14417  1  0.52380950  0.83333336  0.76296296  1
  Ti  Ti14418  1  0.52380950  0.90476193  0.76296296  1
  Ti  Ti14419  1  0.52380950  0.97619050  0.76296296  1
  Ti  Ti14420  1  0.59523807  0.04761907  0.76296296  1
  Ti  Ti14421  1  0.59523807  0.11904764  0.76296296  1
  Ti  Ti14422  1  0.59523807  0.19047621  0.76296296  1
  Ti  Ti14423  1  0.59523807  0.26190479  0.76296296  1
  Ti  Ti14424  1  0.59523807  0.33333336  0.76296296  1
  Ti  Ti14425  1  0.59523807  0.40476193  0.76296296  1
  Ti  Ti14426  1  0.59523807  0.47619050  0.76296296  1
  Ti  Ti14427  1  0.59523807  0.54761907  0.76296296  1
  Ti  Ti14428  1  0.59523807  0.61904764  0.76296296  1
  Ti  Ti14429  1  0.59523807  0.69047621  0.76296296  1
  Ti  Ti14430  1  0.59523807  0.76190479  0.76296296  1
  Ti  Ti14431  1  0.59523807  0.83333336  0.76296296  1
  Ti  Ti14432  1  0.59523807  0.90476193  0.76296296  1
  Ti  Ti14433  1  0.59523807  0.97619050  0.76296296  1
  Ti  Ti14434  1  0.66666664  0.04761907  0.76296296  1
  Ti  Ti14435  1  0.66666664  0.11904764  0.76296296  1
  Ti  Ti14436  1  0.66666664  0.19047621  0.76296296  1
  Ti  Ti14437  1  0.66666664  0.26190479  0.76296296  1
  Ti  Ti14438  1  0.66666664  0.33333336  0.76296296  1
  Ti  Ti14439  1  0.66666664  0.40476193  0.76296296  1
  Ti  Ti14440  1  0.66666664  0.47619050  0.76296296  1
  Ti  Ti14441  1  0.66666664  0.54761907  0.76296296  1
  Ti  Ti14442  1  0.66666664  0.61904764  0.76296296  1
  Ti  Ti14443  1  0.66666664  0.69047621  0.76296296  1
  Ti  Ti14444  1  0.66666664  0.76190479  0.76296296  1
  Ti  Ti14445  1  0.66666664  0.83333336  0.76296296  1
  Ti  Ti14446  1  0.66666664  0.90476193  0.76296296  1
  Ti  Ti14447  1  0.66666664  0.97619050  0.76296296  1
  Ti  Ti14448  1  0.73809521  0.04761907  0.76296296  1
  Ti  Ti14449  1  0.73809521  0.11904764  0.76296296  1
  Ti  Ti14450  1  0.73809521  0.19047621  0.76296296  1
  Ti  Ti14451  1  0.73809521  0.26190479  0.76296296  1
  Ti  Ti14452  1  0.73809521  0.33333336  0.76296296  1
  Ti  Ti14453  1  0.73809521  0.40476193  0.76296296  1
  Ti  Ti14454  1  0.73809521  0.47619050  0.76296296  1
  Ti  Ti14455  1  0.73809521  0.54761907  0.76296296  1
  Ti  Ti14456  1  0.73809521  0.61904764  0.76296296  1
  Ti  Ti14457  1  0.73809521  0.69047621  0.76296296  1
  Ti  Ti14458  1  0.73809521  0.76190479  0.76296296  1
  Ti  Ti14459  1  0.73809521  0.83333336  0.76296296  1
  Ti  Ti14460  1  0.73809521  0.90476193  0.76296296  1
  Ti  Ti14461  1  0.73809521  0.97619050  0.76296296  1
  Ti  Ti14462  1  0.80952379  0.04761907  0.76296296  1
  Ti  Ti14463  1  0.80952379  0.11904764  0.76296296  1
  Ti  Ti14464  1  0.80952379  0.19047621  0.76296296  1
  Ti  Ti14465  1  0.80952379  0.26190479  0.76296296  1
  Ti  Ti14466  1  0.80952379  0.33333336  0.76296296  1
  Ti  Ti14467  1  0.80952379  0.40476193  0.76296296  1
  Ti  Ti14468  1  0.80952379  0.47619050  0.76296296  1
  Ti  Ti14469  1  0.80952379  0.54761907  0.76296296  1
  Ti  Ti14470  1  0.80952379  0.61904764  0.76296296  1
  Ti  Ti14471  1  0.80952379  0.69047621  0.76296296  1
  Ti  Ti14472  1  0.80952379  0.76190479  0.76296296  1
  Ti  Ti14473  1  0.80952379  0.83333336  0.76296296  1
  Ti  Ti14474  1  0.80952379  0.90476193  0.76296296  1
  Ti  Ti14475  1  0.80952379  0.97619050  0.76296296  1
  Ti  Ti14476  1  0.88095236  0.04761907  0.76296296  1
  Ti  Ti14477  1  0.88095236  0.11904764  0.76296296  1
  Ti  Ti14478  1  0.88095236  0.19047621  0.76296296  1
  Ti  Ti14479  1  0.88095236  0.26190479  0.76296296  1
  Ti  Ti14480  1  0.88095236  0.33333336  0.76296296  1
  Ti  Ti14481  1  0.88095236  0.40476193  0.76296296  1
  Ti  Ti14482  1  0.88095236  0.47619050  0.76296296  1
  Ti  Ti14483  1  0.88095236  0.54761907  0.76296296  1
  Ti  Ti14484  1  0.88095236  0.61904764  0.76296296  1
  Ti  Ti14485  1  0.88095236  0.69047621  0.76296296  1
  Ti  Ti14486  1  0.88095236  0.76190479  0.76296296  1
  Ti  Ti14487  1  0.88095236  0.83333336  0.76296296  1
  Ti  Ti14488  1  0.88095236  0.90476193  0.76296296  1
  Ti  Ti14489  1  0.88095236  0.97619050  0.76296296  1
  Ti  Ti14490  1  0.95238093  0.04761907  0.76296296  1
  Ti  Ti14491  1  0.95238093  0.11904764  0.76296296  1
  Ti  Ti14492  1  0.95238093  0.19047621  0.76296296  1
  Ti  Ti14493  1  0.95238093  0.26190479  0.76296296  1
  Ti  Ti14494  1  0.95238093  0.33333336  0.76296296  1
  Ti  Ti14495  1  0.95238093  0.40476193  0.76296296  1
  Ti  Ti14496  1  0.95238093  0.47619050  0.76296296  1
  Ti  Ti14497  1  0.95238093  0.54761907  0.76296296  1
  Ti  Ti14498  1  0.95238093  0.61904764  0.76296296  1
  Ti  Ti14499  1  0.95238093  0.69047621  0.76296296  1
  Ti  Ti14500  1  0.95238093  0.76190479  0.76296296  1
  Ti  Ti14501  1  0.95238093  0.83333336  0.76296296  1
  Ti  Ti14502  1  0.95238093  0.90476193  0.76296296  1
  Ti  Ti14503  1  0.95238093  0.97619050  0.76296296  1
  Ti  Ti14504  1  0.04761907  0.02380950  0.76296296  1
  Ti  Ti14505  1  0.04761907  0.09523807  0.76296296  1
  Ti  Ti14506  1  0.04761907  0.16666664  0.76296296  1
  Ti  Ti14507  1  0.04761907  0.23809521  0.76296296  1
  Ti  Ti14508  1  0.04761907  0.30952379  0.76296296  1
  Ti  Ti14509  1  0.04761907  0.38095236  0.76296296  1
  Ti  Ti14510  1  0.04761907  0.45238093  0.76296296  1
  Ti  Ti14511  1  0.04761907  0.52380950  0.76296296  1
  Ti  Ti14512  1  0.04761907  0.59523807  0.76296296  1
  Ti  Ti14513  1  0.04761907  0.66666664  0.76296296  1
  Ti  Ti14514  1  0.04761907  0.73809521  0.76296296  1
  Ti  Ti14515  1  0.04761907  0.80952379  0.76296296  1
  Ti  Ti14516  1  0.04761907  0.88095236  0.76296296  1
  Ti  Ti14517  1  0.04761907  0.95238093  0.76296296  1
  Ti  Ti14518  1  0.11904764  0.02380950  0.76296296  1
  Ti  Ti14519  1  0.11904764  0.09523807  0.76296296  1
  Ti  Ti14520  1  0.11904764  0.16666664  0.76296296  1
  Ti  Ti14521  1  0.11904764  0.23809521  0.76296296  1
  Ti  Ti14522  1  0.11904764  0.30952379  0.76296296  1
  Ti  Ti14523  1  0.11904764  0.38095236  0.76296296  1
  Ti  Ti14524  1  0.11904764  0.45238093  0.76296296  1
  Ti  Ti14525  1  0.11904764  0.52380950  0.76296296  1
  Ti  Ti14526  1  0.11904764  0.59523807  0.76296296  1
  Ti  Ti14527  1  0.11904764  0.66666664  0.76296296  1
  Ti  Ti14528  1  0.11904764  0.73809521  0.76296296  1
  Ti  Ti14529  1  0.11904764  0.80952379  0.76296296  1
  Ti  Ti14530  1  0.11904764  0.88095236  0.76296296  1
  Ti  Ti14531  1  0.11904764  0.95238093  0.76296296  1
  Ti  Ti14532  1  0.19047621  0.02380950  0.76296296  1
  Ti  Ti14533  1  0.19047621  0.09523807  0.76296296  1
  Ti  Ti14534  1  0.19047621  0.16666664  0.76296296  1
  Ti  Ti14535  1  0.19047621  0.23809521  0.76296296  1
  Ti  Ti14536  1  0.19047621  0.30952379  0.76296296  1
  Ti  Ti14537  1  0.19047621  0.38095236  0.76296296  1
  Ti  Ti14538  1  0.19047621  0.45238093  0.76296296  1
  Ti  Ti14539  1  0.19047621  0.52380950  0.76296296  1
  Ti  Ti14540  1  0.19047621  0.59523807  0.76296296  1
  Ti  Ti14541  1  0.19047621  0.66666664  0.76296296  1
  Ti  Ti14542  1  0.19047621  0.73809521  0.76296296  1
  Ti  Ti14543  1  0.19047621  0.80952379  0.76296296  1
  Ti  Ti14544  1  0.19047621  0.88095236  0.76296296  1
  Ti  Ti14545  1  0.19047621  0.95238093  0.76296296  1
  Ti  Ti14546  1  0.26190479  0.02380950  0.76296296  1
  Ti  Ti14547  1  0.26190479  0.09523807  0.76296296  1
  Ti  Ti14548  1  0.26190479  0.16666664  0.76296296  1
  Ti  Ti14549  1  0.26190479  0.23809521  0.76296296  1
  Ti  Ti14550  1  0.26190479  0.30952379  0.76296296  1
  Ti  Ti14551  1  0.26190479  0.38095236  0.76296296  1
  Ti  Ti14552  1  0.26190479  0.45238093  0.76296296  1
  Ti  Ti14553  1  0.26190479  0.52380950  0.76296296  1
  Ti  Ti14554  1  0.26190479  0.59523807  0.76296296  1
  Ti  Ti14555  1  0.26190479  0.66666664  0.76296296  1
  Ti  Ti14556  1  0.26190479  0.73809521  0.76296296  1
  Ti  Ti14557  1  0.26190479  0.80952379  0.76296296  1
  Ti  Ti14558  1  0.26190479  0.88095236  0.76296296  1
  Ti  Ti14559  1  0.26190479  0.95238093  0.76296296  1
  Ti  Ti14560  1  0.33333336  0.02380950  0.76296296  1
  Ti  Ti14561  1  0.33333336  0.09523807  0.76296296  1
  Ti  Ti14562  1  0.33333336  0.16666664  0.76296296  1
  Ti  Ti14563  1  0.33333336  0.23809521  0.76296296  1
  Ti  Ti14564  1  0.33333336  0.30952379  0.76296296  1
  Ti  Ti14565  1  0.33333336  0.38095236  0.76296296  1
  Ti  Ti14566  1  0.33333336  0.45238093  0.76296296  1
  Ti  Ti14567  1  0.33333336  0.52380950  0.76296296  1
  Ti  Ti14568  1  0.33333336  0.59523807  0.76296296  1
  Ti  Ti14569  1  0.33333336  0.66666664  0.76296296  1
  Ti  Ti14570  1  0.33333336  0.73809521  0.76296296  1
  Ti  Ti14571  1  0.33333336  0.80952379  0.76296296  1
  Ti  Ti14572  1  0.33333336  0.88095236  0.76296296  1
  Ti  Ti14573  1  0.33333336  0.95238093  0.76296296  1
  Ti  Ti14574  1  0.40476193  0.02380950  0.76296296  1
  Ti  Ti14575  1  0.40476193  0.09523807  0.76296296  1
  Ti  Ti14576  1  0.40476193  0.16666664  0.76296296  1
  Ti  Ti14577  1  0.40476193  0.23809521  0.76296296  1
  Ti  Ti14578  1  0.40476193  0.30952379  0.76296296  1
  Ti  Ti14579  1  0.40476193  0.38095236  0.76296296  1
  Ti  Ti14580  1  0.40476193  0.45238093  0.76296296  1
  Ti  Ti14581  1  0.40476193  0.52380950  0.76296296  1
  Ti  Ti14582  1  0.40476193  0.59523807  0.76296296  1
  Ti  Ti14583  1  0.40476193  0.66666664  0.76296296  1
  Ti  Ti14584  1  0.40476193  0.73809521  0.76296296  1
  Ti  Ti14585  1  0.40476193  0.80952379  0.76296296  1
  Ti  Ti14586  1  0.40476193  0.88095236  0.76296296  1
  Ti  Ti14587  1  0.40476193  0.95238093  0.76296296  1
  Ti  Ti14588  1  0.47619050  0.02380950  0.76296296  1
  Ti  Ti14589  1  0.47619050  0.09523807  0.76296296  1
  Ti  Ti14590  1  0.47619050  0.16666664  0.76296296  1
  Ti  Ti14591  1  0.47619050  0.23809521  0.76296296  1
  Ti  Ti14592  1  0.47619050  0.30952379  0.76296296  1
  Ti  Ti14593  1  0.47619050  0.38095236  0.76296296  1
  Ti  Ti14594  1  0.47619050  0.45238093  0.76296296  1
  Ti  Ti14595  1  0.47619050  0.52380950  0.76296296  1
  Ti  Ti14596  1  0.47619050  0.59523807  0.76296296  1
  Ti  Ti14597  1  0.47619050  0.66666664  0.76296296  1
  Ti  Ti14598  1  0.47619050  0.73809521  0.76296296  1
  Ti  Ti14599  1  0.47619050  0.80952379  0.76296296  1
  Ti  Ti14600  1  0.47619050  0.88095236  0.76296296  1
  Ti  Ti14601  1  0.47619050  0.95238093  0.76296296  1
  Ti  Ti14602  1  0.54761907  0.02380950  0.76296296  1
  Ti  Ti14603  1  0.54761907  0.09523807  0.76296296  1
  Ti  Ti14604  1  0.54761907  0.16666664  0.76296296  1
  Ti  Ti14605  1  0.54761907  0.23809521  0.76296296  1
  Ti  Ti14606  1  0.54761907  0.30952379  0.76296296  1
  Ti  Ti14607  1  0.54761907  0.38095236  0.76296296  1
  Ti  Ti14608  1  0.54761907  0.45238093  0.76296296  1
  Ti  Ti14609  1  0.54761907  0.52380950  0.76296296  1
  Ti  Ti14610  1  0.54761907  0.59523807  0.76296296  1
  Ti  Ti14611  1  0.54761907  0.66666664  0.76296296  1
  Ti  Ti14612  1  0.54761907  0.73809521  0.76296296  1
  Ti  Ti14613  1  0.54761907  0.80952379  0.76296296  1
  Ti  Ti14614  1  0.54761907  0.88095236  0.76296296  1
  Ti  Ti14615  1  0.54761907  0.95238093  0.76296296  1
  Ti  Ti14616  1  0.61904764  0.02380950  0.76296296  1
  Ti  Ti14617  1  0.61904764  0.09523807  0.76296296  1
  Ti  Ti14618  1  0.61904764  0.16666664  0.76296296  1
  Ti  Ti14619  1  0.61904764  0.23809521  0.76296296  1
  Ti  Ti14620  1  0.61904764  0.30952379  0.76296296  1
  Ti  Ti14621  1  0.61904764  0.38095236  0.76296296  1
  Ti  Ti14622  1  0.61904764  0.45238093  0.76296296  1
  Ti  Ti14623  1  0.61904764  0.52380950  0.76296296  1
  Ti  Ti14624  1  0.61904764  0.59523807  0.76296296  1
  Ti  Ti14625  1  0.61904764  0.66666664  0.76296296  1
  Ti  Ti14626  1  0.61904764  0.73809521  0.76296296  1
  Ti  Ti14627  1  0.61904764  0.80952379  0.76296296  1
  Ti  Ti14628  1  0.61904764  0.88095236  0.76296296  1
  Ti  Ti14629  1  0.61904764  0.95238093  0.76296296  1
  Ti  Ti14630  1  0.69047621  0.02380950  0.76296296  1
  Ti  Ti14631  1  0.69047621  0.09523807  0.76296296  1
  Ti  Ti14632  1  0.69047621  0.16666664  0.76296296  1
  Ti  Ti14633  1  0.69047621  0.23809521  0.76296296  1
  Ti  Ti14634  1  0.69047621  0.30952379  0.76296296  1
  Ti  Ti14635  1  0.69047621  0.38095236  0.76296296  1
  Ti  Ti14636  1  0.69047621  0.45238093  0.76296296  1
  Ti  Ti14637  1  0.69047621  0.52380950  0.76296296  1
  Ti  Ti14638  1  0.69047621  0.59523807  0.76296296  1
  Ti  Ti14639  1  0.69047621  0.66666664  0.76296296  1
  Ti  Ti14640  1  0.69047621  0.73809521  0.76296296  1
  Ti  Ti14641  1  0.69047621  0.80952379  0.76296296  1
  Ti  Ti14642  1  0.69047621  0.88095236  0.76296296  1
  Ti  Ti14643  1  0.69047621  0.95238093  0.76296296  1
  Ti  Ti14644  1  0.76190479  0.02380950  0.76296296  1
  Ti  Ti14645  1  0.76190479  0.09523807  0.76296296  1
  Ti  Ti14646  1  0.76190479  0.16666664  0.76296296  1
  Ti  Ti14647  1  0.76190479  0.23809521  0.76296296  1
  Ti  Ti14648  1  0.76190479  0.30952379  0.76296296  1
  Ti  Ti14649  1  0.76190479  0.38095236  0.76296296  1
  Ti  Ti14650  1  0.76190479  0.45238093  0.76296296  1
  Ti  Ti14651  1  0.76190479  0.52380950  0.76296296  1
  Ti  Ti14652  1  0.76190479  0.59523807  0.76296296  1
  Ti  Ti14653  1  0.76190479  0.66666664  0.76296296  1
  Ti  Ti14654  1  0.76190479  0.73809521  0.76296296  1
  Ti  Ti14655  1  0.76190479  0.80952379  0.76296296  1
  Ti  Ti14656  1  0.76190479  0.88095236  0.76296296  1
  Ti  Ti14657  1  0.76190479  0.95238093  0.76296296  1
  Ti  Ti14658  1  0.83333336  0.02380950  0.76296296  1
  Ti  Ti14659  1  0.83333336  0.09523807  0.76296296  1
  Ti  Ti14660  1  0.83333336  0.16666664  0.76296296  1
  Ti  Ti14661  1  0.83333336  0.23809521  0.76296296  1
  Ti  Ti14662  1  0.83333336  0.30952379  0.76296296  1
  Ti  Ti14663  1  0.83333336  0.38095236  0.76296296  1
  Ti  Ti14664  1  0.83333336  0.45238093  0.76296296  1
  Ti  Ti14665  1  0.83333336  0.52380950  0.76296296  1
  Ti  Ti14666  1  0.83333336  0.59523807  0.76296296  1
  Ti  Ti14667  1  0.83333336  0.66666664  0.76296296  1
  Ti  Ti14668  1  0.83333336  0.73809521  0.76296296  1
  Ti  Ti14669  1  0.83333336  0.80952379  0.76296296  1
  Ti  Ti14670  1  0.83333336  0.88095236  0.76296296  1
  Ti  Ti14671  1  0.83333336  0.95238093  0.76296296  1
  Ti  Ti14672  1  0.90476193  0.02380950  0.76296296  1
  Ti  Ti14673  1  0.90476193  0.09523807  0.76296296  1
  Ti  Ti14674  1  0.90476193  0.16666664  0.76296296  1
  Ti  Ti14675  1  0.90476193  0.23809521  0.76296296  1
  Ti  Ti14676  1  0.90476193  0.30952379  0.76296296  1
  Ti  Ti14677  1  0.90476193  0.38095236  0.76296296  1
  Ti  Ti14678  1  0.90476193  0.45238093  0.76296296  1
  Ti  Ti14679  1  0.90476193  0.52380950  0.76296296  1
  Ti  Ti14680  1  0.90476193  0.59523807  0.76296296  1
  Ti  Ti14681  1  0.90476193  0.66666664  0.76296296  1
  Ti  Ti14682  1  0.90476193  0.73809521  0.76296296  1
  Ti  Ti14683  1  0.90476193  0.80952379  0.76296296  1
  Ti  Ti14684  1  0.90476193  0.88095236  0.76296296  1
  Ti  Ti14685  1  0.90476193  0.95238093  0.76296296  1
  Ti  Ti14686  1  0.97619050  0.02380950  0.76296296  1
  Ti  Ti14687  1  0.97619050  0.09523807  0.76296296  1
  Ti  Ti14688  1  0.97619050  0.16666664  0.76296296  1
  Ti  Ti14689  1  0.97619050  0.23809521  0.76296296  1
  Ti  Ti14690  1  0.97619050  0.30952379  0.76296296  1
  Ti  Ti14691  1  0.97619050  0.38095236  0.76296296  1
  Ti  Ti14692  1  0.97619050  0.45238093  0.76296296  1
  Ti  Ti14693  1  0.97619050  0.52380950  0.76296296  1
  Ti  Ti14694  1  0.97619050  0.59523807  0.76296296  1
  Ti  Ti14695  1  0.97619050  0.66666664  0.76296296  1
  Ti  Ti14696  1  0.97619050  0.73809521  0.76296296  1
  Ti  Ti14697  1  0.97619050  0.80952379  0.76296296  1
  Ti  Ti14698  1  0.97619050  0.88095236  0.76296296  1
  Ti  Ti14699  1  0.97619050  0.95238093  0.76296296  1
