# generated using pymatgen
data_TiP2
_symmetry_space_group_name_H-M   'P 1'
_cell_length_a   61.70290790
_cell_length_b   66.12086672
_cell_length_c   50.22892665
_cell_angle_alpha   90.00000000
_cell_angle_beta   90.00000000
_cell_angle_gamma   90.00000000
_symmetry_Int_Tables_number   1
_chemical_formula_structural   TiP2
_chemical_formula_sum   'Ti2880 P5760'
_cell_volume   204926.47381027
_cell_formula_units_Z   2880
loop_
 _symmetry_equiv_pos_site_id
 _symmetry_equiv_pos_as_xyz
  1  'x, y, z'
loop_
 _atom_site_type_symbol
 _atom_site_label
 _atom_site_symmetry_multiplicity
 _atom_site_fract_x
 _atom_site_fract_y
 _atom_site_fract_z
 _atom_site_occupancy
  Ti  Ti0  1  0.02322368  0.08329908  0.21666667  1.0
  Ti  Ti1  1  0.02322368  0.20829908  0.21666667  1.0
  Ti  Ti2  1  0.02322368  0.33329908  0.21666667  1.0
  Ti  Ti3  1  0.02322368  0.45829908  0.21666667  1.0
  Ti  Ti4  1  0.02322368  0.58329908  0.21666667  1.0
  Ti  Ti5  1  0.02322368  0.70829908  0.21666667  1.0
  Ti  Ti6  1  0.02322368  0.83329908  0.21666667  1.0
  Ti  Ti7  1  0.02322368  0.95829908  0.21666667  1.0
  Ti  Ti8  1  0.12322368  0.08329908  0.21666667  1.0
  Ti  Ti9  1  0.12322368  0.20829908  0.21666667  1.0
  Ti  Ti10  1  0.12322368  0.33329908  0.21666667  1.0
  Ti  Ti11  1  0.12322368  0.45829908  0.21666667  1.0
  Ti  Ti12  1  0.12322368  0.58329908  0.21666667  1.0
  Ti  Ti13  1  0.12322368  0.70829908  0.21666667  1.0
  Ti  Ti14  1  0.12322368  0.83329908  0.21666667  1.0
  Ti  Ti15  1  0.12322368  0.95829908  0.21666667  1.0
  Ti  Ti16  1  0.22322368  0.08329908  0.21666667  1.0
  Ti  Ti17  1  0.22322368  0.20829908  0.21666667  1.0
  Ti  Ti18  1  0.22322368  0.33329908  0.21666667  1.0
  Ti  Ti19  1  0.22322368  0.45829908  0.21666667  1.0
  Ti  Ti20  1  0.22322368  0.58329908  0.21666667  1.0
  Ti  Ti21  1  0.22322368  0.70829908  0.21666667  1.0
  Ti  Ti22  1  0.22322368  0.83329908  0.21666667  1.0
  Ti  Ti23  1  0.22322368  0.95829908  0.21666667  1.0
  Ti  Ti24  1  0.32322368  0.08329908  0.21666667  1.0
  Ti  Ti25  1  0.32322368  0.20829908  0.21666667  1.0
  Ti  Ti26  1  0.32322368  0.33329908  0.21666667  1.0
  Ti  Ti27  1  0.32322368  0.45829908  0.21666667  1.0
  Ti  Ti28  1  0.32322368  0.58329908  0.21666667  1.0
  Ti  Ti29  1  0.32322368  0.70829908  0.21666667  1.0
  Ti  Ti30  1  0.32322368  0.83329908  0.21666667  1.0
  Ti  Ti31  1  0.32322368  0.95829908  0.21666667  1.0
  Ti  Ti32  1  0.42322368  0.08329908  0.21666667  1.0
  Ti  Ti33  1  0.42322368  0.20829908  0.21666667  1.0
  Ti  Ti34  1  0.42322368  0.33329908  0.21666667  1.0
  Ti  Ti35  1  0.42322368  0.45829908  0.21666667  1.0
  Ti  Ti36  1  0.42322368  0.58329908  0.21666667  1.0
  Ti  Ti37  1  0.42322368  0.70829908  0.21666667  1.0
  Ti  Ti38  1  0.42322368  0.83329908  0.21666667  1.0
  Ti  Ti39  1  0.42322368  0.95829908  0.21666667  1.0
  Ti  Ti40  1  0.52322368  0.08329908  0.21666667  1.0
  Ti  Ti41  1  0.52322368  0.20829908  0.21666667  1.0
  Ti  Ti42  1  0.52322368  0.33329908  0.21666667  1.0
  Ti  Ti43  1  0.52322368  0.45829908  0.21666667  1.0
  Ti  Ti44  1  0.52322368  0.58329908  0.21666667  1.0
  Ti  Ti45  1  0.52322368  0.70829908  0.21666667  1.0
  Ti  Ti46  1  0.52322368  0.83329908  0.21666667  1.0
  Ti  Ti47  1  0.52322368  0.95829908  0.21666667  1.0
  Ti  Ti48  1  0.62322368  0.08329908  0.21666667  1.0
  Ti  Ti49  1  0.62322368  0.20829908  0.21666667  1.0
  Ti  Ti50  1  0.62322368  0.33329908  0.21666667  1.0
  Ti  Ti51  1  0.62322368  0.45829908  0.21666667  1.0
  Ti  Ti52  1  0.62322368  0.58329908  0.21666667  1.0
  Ti  Ti53  1  0.62322368  0.70829908  0.21666667  1.0
  Ti  Ti54  1  0.62322368  0.83329908  0.21666667  1.0
  Ti  Ti55  1  0.62322368  0.95829908  0.21666667  1.0
  Ti  Ti56  1  0.72322368  0.08329908  0.21666667  1.0
  Ti  Ti57  1  0.72322368  0.20829908  0.21666667  1.0
  Ti  Ti58  1  0.72322368  0.33329908  0.21666667  1.0
  Ti  Ti59  1  0.72322368  0.45829908  0.21666667  1.0
  Ti  Ti60  1  0.72322368  0.58329908  0.21666667  1.0
  Ti  Ti61  1  0.72322368  0.70829908  0.21666667  1.0
  Ti  Ti62  1  0.72322368  0.83329908  0.21666667  1.0
  Ti  Ti63  1  0.72322368  0.95829908  0.21666667  1.0
  Ti  Ti64  1  0.82322368  0.08329908  0.21666667  1.0
  Ti  Ti65  1  0.82322368  0.20829908  0.21666667  1.0
  Ti  Ti66  1  0.82322368  0.33329908  0.21666667  1.0
  Ti  Ti67  1  0.82322368  0.45829908  0.21666667  1.0
  Ti  Ti68  1  0.82322368  0.58329908  0.21666667  1.0
  Ti  Ti69  1  0.82322368  0.70829908  0.21666667  1.0
  Ti  Ti70  1  0.82322368  0.83329908  0.21666667  1.0
  Ti  Ti71  1  0.82322368  0.95829908  0.21666667  1.0
  Ti  Ti72  1  0.92322368  0.08329908  0.21666667  1.0
  Ti  Ti73  1  0.92322368  0.20829908  0.21666667  1.0
  Ti  Ti74  1  0.92322368  0.33329908  0.21666667  1.0
  Ti  Ti75  1  0.92322368  0.45829908  0.21666667  1.0
  Ti  Ti76  1  0.92322368  0.58329908  0.21666667  1.0
  Ti  Ti77  1  0.92322368  0.70829908  0.21666667  1.0
  Ti  Ti78  1  0.92322368  0.83329908  0.21666667  1.0
  Ti  Ti79  1  0.92322368  0.95829908  0.21666667  1.0
  Ti  Ti80  1  0.07677632  0.04170092  0.25000000  1.0
  Ti  Ti81  1  0.07677632  0.16670092  0.25000000  1.0
  Ti  Ti82  1  0.07677632  0.29170092  0.25000000  1.0
  Ti  Ti83  1  0.07677632  0.41670092  0.25000000  1.0
  Ti  Ti84  1  0.07677632  0.54170092  0.25000000  1.0
  Ti  Ti85  1  0.07677632  0.66670092  0.25000000  1.0
  Ti  Ti86  1  0.07677632  0.79170092  0.25000000  1.0
  Ti  Ti87  1  0.07677632  0.91670092  0.25000000  1.0
  Ti  Ti88  1  0.17677632  0.04170092  0.25000000  1.0
  Ti  Ti89  1  0.17677632  0.16670092  0.25000000  1.0
  Ti  Ti90  1  0.17677632  0.29170092  0.25000000  1.0
  Ti  Ti91  1  0.17677632  0.41670092  0.25000000  1.0
  Ti  Ti92  1  0.17677632  0.54170092  0.25000000  1.0
  Ti  Ti93  1  0.17677632  0.66670092  0.25000000  1.0
  Ti  Ti94  1  0.17677632  0.79170092  0.25000000  1.0
  Ti  Ti95  1  0.17677632  0.91670092  0.25000000  1.0
  Ti  Ti96  1  0.27677632  0.04170092  0.25000000  1.0
  Ti  Ti97  1  0.27677632  0.16670092  0.25000000  1.0
  Ti  Ti98  1  0.27677632  0.29170092  0.25000000  1.0
  Ti  Ti99  1  0.27677632  0.41670092  0.25000000  1.0
  Ti  Ti100  1  0.27677632  0.54170092  0.25000000  1.0
  Ti  Ti101  1  0.27677632  0.66670092  0.25000000  1.0
  Ti  Ti102  1  0.27677632  0.79170092  0.25000000  1.0
  Ti  Ti103  1  0.27677632  0.91670092  0.25000000  1.0
  Ti  Ti104  1  0.37677632  0.04170092  0.25000000  1.0
  Ti  Ti105  1  0.37677632  0.16670092  0.25000000  1.0
  Ti  Ti106  1  0.37677632  0.29170092  0.25000000  1.0
  Ti  Ti107  1  0.37677632  0.41670092  0.25000000  1.0
  Ti  Ti108  1  0.37677632  0.54170092  0.25000000  1.0
  Ti  Ti109  1  0.37677632  0.66670092  0.25000000  1.0
  Ti  Ti110  1  0.37677632  0.79170092  0.25000000  1.0
  Ti  Ti111  1  0.37677632  0.91670092  0.25000000  1.0
  Ti  Ti112  1  0.47677632  0.04170092  0.25000000  1.0
  Ti  Ti113  1  0.47677632  0.16670092  0.25000000  1.0
  Ti  Ti114  1  0.47677632  0.29170092  0.25000000  1.0
  Ti  Ti115  1  0.47677632  0.41670092  0.25000000  1.0
  Ti  Ti116  1  0.47677632  0.54170092  0.25000000  1.0
  Ti  Ti117  1  0.47677632  0.66670092  0.25000000  1.0
  Ti  Ti118  1  0.47677632  0.79170092  0.25000000  1.0
  Ti  Ti119  1  0.47677632  0.91670092  0.25000000  1.0
  Ti  Ti120  1  0.57677632  0.04170092  0.25000000  1.0
  Ti  Ti121  1  0.57677632  0.16670092  0.25000000  1.0
  Ti  Ti122  1  0.57677632  0.29170092  0.25000000  1.0
  Ti  Ti123  1  0.57677632  0.41670092  0.25000000  1.0
  Ti  Ti124  1  0.57677632  0.54170092  0.25000000  1.0
  Ti  Ti125  1  0.57677632  0.66670092  0.25000000  1.0
  Ti  Ti126  1  0.57677632  0.79170092  0.25000000  1.0
  Ti  Ti127  1  0.57677632  0.91670092  0.25000000  1.0
  Ti  Ti128  1  0.67677632  0.04170092  0.25000000  1.0
  Ti  Ti129  1  0.67677632  0.16670092  0.25000000  1.0
  Ti  Ti130  1  0.67677632  0.29170092  0.25000000  1.0
  Ti  Ti131  1  0.67677632  0.41670092  0.25000000  1.0
  Ti  Ti132  1  0.67677632  0.54170092  0.25000000  1.0
  Ti  Ti133  1  0.67677632  0.66670092  0.25000000  1.0
  Ti  Ti134  1  0.67677632  0.79170092  0.25000000  1.0
  Ti  Ti135  1  0.67677632  0.91670092  0.25000000  1.0
  Ti  Ti136  1  0.77677632  0.04170092  0.25000000  1.0
  Ti  Ti137  1  0.77677632  0.16670092  0.25000000  1.0
  Ti  Ti138  1  0.77677632  0.29170092  0.25000000  1.0
  Ti  Ti139  1  0.77677632  0.41670092  0.25000000  1.0
  Ti  Ti140  1  0.77677632  0.54170092  0.25000000  1.0
  Ti  Ti141  1  0.77677632  0.66670092  0.25000000  1.0
  Ti  Ti142  1  0.77677632  0.79170092  0.25000000  1.0
  Ti  Ti143  1  0.77677632  0.91670092  0.25000000  1.0
  Ti  Ti144  1  0.87677632  0.04170092  0.25000000  1.0
  Ti  Ti145  1  0.87677632  0.16670092  0.25000000  1.0
  Ti  Ti146  1  0.87677632  0.29170092  0.25000000  1.0
  Ti  Ti147  1  0.87677632  0.41670092  0.25000000  1.0
  Ti  Ti148  1  0.87677632  0.54170092  0.25000000  1.0
  Ti  Ti149  1  0.87677632  0.66670092  0.25000000  1.0
  Ti  Ti150  1  0.87677632  0.79170092  0.25000000  1.0
  Ti  Ti151  1  0.87677632  0.91670092  0.25000000  1.0
  Ti  Ti152  1  0.97677632  0.04170092  0.25000000  1.0
  Ti  Ti153  1  0.97677632  0.16670092  0.25000000  1.0
  Ti  Ti154  1  0.97677632  0.29170092  0.25000000  1.0
  Ti  Ti155  1  0.97677632  0.41670092  0.25000000  1.0
  Ti  Ti156  1  0.97677632  0.54170092  0.25000000  1.0
  Ti  Ti157  1  0.97677632  0.66670092  0.25000000  1.0
  Ti  Ti158  1  0.97677632  0.79170092  0.25000000  1.0
  Ti  Ti159  1  0.97677632  0.91670092  0.25000000  1.0
  Ti  Ti160  1  0.07322368  0.10420092  0.21666667  1.0
  Ti  Ti161  1  0.07322368  0.22920092  0.21666667  1.0
  Ti  Ti162  1  0.07322368  0.35420092  0.21666667  1.0
  Ti  Ti163  1  0.07322368  0.47920092  0.21666667  1.0
  Ti  Ti164  1  0.07322368  0.60420092  0.21666667  1.0
  Ti  Ti165  1  0.07322368  0.72920092  0.21666667  1.0
  Ti  Ti166  1  0.07322368  0.85420092  0.21666667  1.0
  Ti  Ti167  1  0.07322368  0.97920092  0.21666667  1.0
  Ti  Ti168  1  0.17322368  0.10420092  0.21666667  1.0
  Ti  Ti169  1  0.17322368  0.22920092  0.21666667  1.0
  Ti  Ti170  1  0.17322368  0.35420092  0.21666667  1.0
  Ti  Ti171  1  0.17322368  0.47920092  0.21666667  1.0
  Ti  Ti172  1  0.17322368  0.60420092  0.21666667  1.0
  Ti  Ti173  1  0.17322368  0.72920092  0.21666667  1.0
  Ti  Ti174  1  0.17322368  0.85420092  0.21666667  1.0
  Ti  Ti175  1  0.17322368  0.97920092  0.21666667  1.0
  Ti  Ti176  1  0.27322368  0.10420092  0.21666667  1.0
  Ti  Ti177  1  0.27322368  0.22920092  0.21666667  1.0
  Ti  Ti178  1  0.27322368  0.35420092  0.21666667  1.0
  Ti  Ti179  1  0.27322368  0.47920092  0.21666667  1.0
  Ti  Ti180  1  0.27322368  0.60420092  0.21666667  1.0
  Ti  Ti181  1  0.27322368  0.72920092  0.21666667  1.0
  Ti  Ti182  1  0.27322368  0.85420092  0.21666667  1.0
  Ti  Ti183  1  0.27322368  0.97920092  0.21666667  1.0
  Ti  Ti184  1  0.37322368  0.10420092  0.21666667  1.0
  Ti  Ti185  1  0.37322368  0.22920092  0.21666667  1.0
  Ti  Ti186  1  0.37322368  0.35420092  0.21666667  1.0
  Ti  Ti187  1  0.37322368  0.47920092  0.21666667  1.0
  Ti  Ti188  1  0.37322368  0.60420092  0.21666667  1.0
  Ti  Ti189  1  0.37322368  0.72920092  0.21666667  1.0
  Ti  Ti190  1  0.37322368  0.85420092  0.21666667  1.0
  Ti  Ti191  1  0.37322368  0.97920092  0.21666667  1.0
  Ti  Ti192  1  0.47322368  0.10420092  0.21666667  1.0
  Ti  Ti193  1  0.47322368  0.22920092  0.21666667  1.0
  Ti  Ti194  1  0.47322368  0.35420092  0.21666667  1.0
  Ti  Ti195  1  0.47322368  0.47920092  0.21666667  1.0
  Ti  Ti196  1  0.47322368  0.60420092  0.21666667  1.0
  Ti  Ti197  1  0.47322368  0.72920092  0.21666667  1.0
  Ti  Ti198  1  0.47322368  0.85420092  0.21666667  1.0
  Ti  Ti199  1  0.47322368  0.97920092  0.21666667  1.0
  Ti  Ti200  1  0.57322368  0.10420092  0.21666667  1.0
  Ti  Ti201  1  0.57322368  0.22920092  0.21666667  1.0
  Ti  Ti202  1  0.57322368  0.35420092  0.21666667  1.0
  Ti  Ti203  1  0.57322368  0.47920092  0.21666667  1.0
  Ti  Ti204  1  0.57322368  0.60420092  0.21666667  1.0
  Ti  Ti205  1  0.57322368  0.72920092  0.21666667  1.0
  Ti  Ti206  1  0.57322368  0.85420092  0.21666667  1.0
  Ti  Ti207  1  0.57322368  0.97920092  0.21666667  1.0
  Ti  Ti208  1  0.67322368  0.10420092  0.21666667  1.0
  Ti  Ti209  1  0.67322368  0.22920092  0.21666667  1.0
  Ti  Ti210  1  0.67322368  0.35420092  0.21666667  1.0
  Ti  Ti211  1  0.67322368  0.47920092  0.21666667  1.0
  Ti  Ti212  1  0.67322368  0.60420092  0.21666667  1.0
  Ti  Ti213  1  0.67322368  0.72920092  0.21666667  1.0
  Ti  Ti214  1  0.67322368  0.85420092  0.21666667  1.0
  Ti  Ti215  1  0.67322368  0.97920092  0.21666667  1.0
  Ti  Ti216  1  0.77322368  0.10420092  0.21666667  1.0
  Ti  Ti217  1  0.77322368  0.22920092  0.21666667  1.0
  Ti  Ti218  1  0.77322368  0.35420092  0.21666667  1.0
  Ti  Ti219  1  0.77322368  0.47920092  0.21666667  1.0
  Ti  Ti220  1  0.77322368  0.60420092  0.21666667  1.0
  Ti  Ti221  1  0.77322368  0.72920092  0.21666667  1.0
  Ti  Ti222  1  0.77322368  0.85420092  0.21666667  1.0
  Ti  Ti223  1  0.77322368  0.97920092  0.21666667  1.0
  Ti  Ti224  1  0.87322368  0.10420092  0.21666667  1.0
  Ti  Ti225  1  0.87322368  0.22920092  0.21666667  1.0
  Ti  Ti226  1  0.87322368  0.35420092  0.21666667  1.0
  Ti  Ti227  1  0.87322368  0.47920092  0.21666667  1.0
  Ti  Ti228  1  0.87322368  0.60420092  0.21666667  1.0
  Ti  Ti229  1  0.87322368  0.72920092  0.21666667  1.0
  Ti  Ti230  1  0.87322368  0.85420092  0.21666667  1.0
  Ti  Ti231  1  0.87322368  0.97920092  0.21666667  1.0
  Ti  Ti232  1  0.97322368  0.10420092  0.21666667  1.0
  Ti  Ti233  1  0.97322368  0.22920092  0.21666667  1.0
  Ti  Ti234  1  0.97322368  0.35420092  0.21666667  1.0
  Ti  Ti235  1  0.97322368  0.47920092  0.21666667  1.0
  Ti  Ti236  1  0.97322368  0.60420092  0.21666667  1.0
  Ti  Ti237  1  0.97322368  0.72920092  0.21666667  1.0
  Ti  Ti238  1  0.97322368  0.85420092  0.21666667  1.0
  Ti  Ti239  1  0.97322368  0.97920092  0.21666667  1.0
  Ti  Ti240  1  0.02677632  0.02079908  0.25000000  1.0
  Ti  Ti241  1  0.02677632  0.14579908  0.25000000  1.0
  Ti  Ti242  1  0.02677632  0.27079908  0.25000000  1.0
  Ti  Ti243  1  0.02677632  0.39579908  0.25000000  1.0
  Ti  Ti244  1  0.02677632  0.52079908  0.25000000  1.0
  Ti  Ti245  1  0.02677632  0.64579908  0.25000000  1.0
  Ti  Ti246  1  0.02677632  0.77079908  0.25000000  1.0
  Ti  Ti247  1  0.02677632  0.89579908  0.25000000  1.0
  Ti  Ti248  1  0.12677632  0.02079908  0.25000000  1.0
  Ti  Ti249  1  0.12677632  0.14579908  0.25000000  1.0
  Ti  Ti250  1  0.12677632  0.27079908  0.25000000  1.0
  Ti  Ti251  1  0.12677632  0.39579908  0.25000000  1.0
  Ti  Ti252  1  0.12677632  0.52079908  0.25000000  1.0
  Ti  Ti253  1  0.12677632  0.64579908  0.25000000  1.0
  Ti  Ti254  1  0.12677632  0.77079908  0.25000000  1.0
  Ti  Ti255  1  0.12677632  0.89579908  0.25000000  1.0
  Ti  Ti256  1  0.22677632  0.02079908  0.25000000  1.0
  Ti  Ti257  1  0.22677632  0.14579908  0.25000000  1.0
  Ti  Ti258  1  0.22677632  0.27079908  0.25000000  1.0
  Ti  Ti259  1  0.22677632  0.39579908  0.25000000  1.0
  Ti  Ti260  1  0.22677632  0.52079908  0.25000000  1.0
  Ti  Ti261  1  0.22677632  0.64579908  0.25000000  1.0
  Ti  Ti262  1  0.22677632  0.77079908  0.25000000  1.0
  Ti  Ti263  1  0.22677632  0.89579908  0.25000000  1.0
  Ti  Ti264  1  0.32677632  0.02079908  0.25000000  1.0
  Ti  Ti265  1  0.32677632  0.14579908  0.25000000  1.0
  Ti  Ti266  1  0.32677632  0.27079908  0.25000000  1.0
  Ti  Ti267  1  0.32677632  0.39579908  0.25000000  1.0
  Ti  Ti268  1  0.32677632  0.52079908  0.25000000  1.0
  Ti  Ti269  1  0.32677632  0.64579908  0.25000000  1.0
  Ti  Ti270  1  0.32677632  0.77079908  0.25000000  1.0
  Ti  Ti271  1  0.32677632  0.89579908  0.25000000  1.0
  Ti  Ti272  1  0.42677632  0.02079908  0.25000000  1.0
  Ti  Ti273  1  0.42677632  0.14579908  0.25000000  1.0
  Ti  Ti274  1  0.42677632  0.27079908  0.25000000  1.0
  Ti  Ti275  1  0.42677632  0.39579908  0.25000000  1.0
  Ti  Ti276  1  0.42677632  0.52079908  0.25000000  1.0
  Ti  Ti277  1  0.42677632  0.64579908  0.25000000  1.0
  Ti  Ti278  1  0.42677632  0.77079908  0.25000000  1.0
  Ti  Ti279  1  0.42677632  0.89579908  0.25000000  1.0
  Ti  Ti280  1  0.52677632  0.02079908  0.25000000  1.0
  Ti  Ti281  1  0.52677632  0.14579908  0.25000000  1.0
  Ti  Ti282  1  0.52677632  0.27079908  0.25000000  1.0
  Ti  Ti283  1  0.52677632  0.39579908  0.25000000  1.0
  Ti  Ti284  1  0.52677632  0.52079908  0.25000000  1.0
  Ti  Ti285  1  0.52677632  0.64579908  0.25000000  1.0
  Ti  Ti286  1  0.52677632  0.77079908  0.25000000  1.0
  Ti  Ti287  1  0.52677632  0.89579908  0.25000000  1.0
  Ti  Ti288  1  0.62677632  0.02079908  0.25000000  1.0
  Ti  Ti289  1  0.62677632  0.14579908  0.25000000  1.0
  Ti  Ti290  1  0.62677632  0.27079908  0.25000000  1.0
  Ti  Ti291  1  0.62677632  0.39579908  0.25000000  1.0
  Ti  Ti292  1  0.62677632  0.52079908  0.25000000  1.0
  Ti  Ti293  1  0.62677632  0.64579908  0.25000000  1.0
  Ti  Ti294  1  0.62677632  0.77079908  0.25000000  1.0
  Ti  Ti295  1  0.62677632  0.89579908  0.25000000  1.0
  Ti  Ti296  1  0.72677632  0.02079908  0.25000000  1.0
  Ti  Ti297  1  0.72677632  0.14579908  0.25000000  1.0
  Ti  Ti298  1  0.72677632  0.27079908  0.25000000  1.0
  Ti  Ti299  1  0.72677632  0.39579908  0.25000000  1.0
  Ti  Ti300  1  0.72677632  0.52079908  0.25000000  1.0
  Ti  Ti301  1  0.72677632  0.64579908  0.25000000  1.0
  Ti  Ti302  1  0.72677632  0.77079908  0.25000000  1.0
  Ti  Ti303  1  0.72677632  0.89579908  0.25000000  1.0
  Ti  Ti304  1  0.82677632  0.02079908  0.25000000  1.0
  Ti  Ti305  1  0.82677632  0.14579908  0.25000000  1.0
  Ti  Ti306  1  0.82677632  0.27079908  0.25000000  1.0
  Ti  Ti307  1  0.82677632  0.39579908  0.25000000  1.0
  Ti  Ti308  1  0.82677632  0.52079908  0.25000000  1.0
  Ti  Ti309  1  0.82677632  0.64579908  0.25000000  1.0
  Ti  Ti310  1  0.82677632  0.77079908  0.25000000  1.0
  Ti  Ti311  1  0.82677632  0.89579908  0.25000000  1.0
  Ti  Ti312  1  0.92677632  0.02079908  0.25000000  1.0
  Ti  Ti313  1  0.92677632  0.14579908  0.25000000  1.0
  Ti  Ti314  1  0.92677632  0.27079908  0.25000000  1.0
  Ti  Ti315  1  0.92677632  0.39579908  0.25000000  1.0
  Ti  Ti316  1  0.92677632  0.52079908  0.25000000  1.0
  Ti  Ti317  1  0.92677632  0.64579908  0.25000000  1.0
  Ti  Ti318  1  0.92677632  0.77079908  0.25000000  1.0
  Ti  Ti319  1  0.92677632  0.89579908  0.25000000  1.0
  Ti  Ti320  1  0.02322368  0.08329908  0.28333333  1.0
  Ti  Ti321  1  0.02322368  0.20829908  0.28333333  1.0
  Ti  Ti322  1  0.02322368  0.33329908  0.28333333  1.0
  Ti  Ti323  1  0.02322368  0.45829908  0.28333333  1.0
  Ti  Ti324  1  0.02322368  0.58329908  0.28333333  1.0
  Ti  Ti325  1  0.02322368  0.70829908  0.28333333  1.0
  Ti  Ti326  1  0.02322368  0.83329908  0.28333333  1.0
  Ti  Ti327  1  0.02322368  0.95829908  0.28333333  1.0
  Ti  Ti328  1  0.12322368  0.08329908  0.28333333  1.0
  Ti  Ti329  1  0.12322368  0.20829908  0.28333333  1.0
  Ti  Ti330  1  0.12322368  0.33329908  0.28333333  1.0
  Ti  Ti331  1  0.12322368  0.45829908  0.28333333  1.0
  Ti  Ti332  1  0.12322368  0.58329908  0.28333333  1.0
  Ti  Ti333  1  0.12322368  0.70829908  0.28333333  1.0
  Ti  Ti334  1  0.12322368  0.83329908  0.28333333  1.0
  Ti  Ti335  1  0.12322368  0.95829908  0.28333333  1.0
  Ti  Ti336  1  0.22322368  0.08329908  0.28333333  1.0
  Ti  Ti337  1  0.22322368  0.20829908  0.28333333  1.0
  Ti  Ti338  1  0.22322368  0.33329908  0.28333333  1.0
  Ti  Ti339  1  0.22322368  0.45829908  0.28333333  1.0
  Ti  Ti340  1  0.22322368  0.58329908  0.28333333  1.0
  Ti  Ti341  1  0.22322368  0.70829908  0.28333333  1.0
  Ti  Ti342  1  0.22322368  0.83329908  0.28333333  1.0
  Ti  Ti343  1  0.22322368  0.95829908  0.28333333  1.0
  Ti  Ti344  1  0.32322368  0.08329908  0.28333333  1.0
  Ti  Ti345  1  0.32322368  0.20829908  0.28333333  1.0
  Ti  Ti346  1  0.32322368  0.33329908  0.28333333  1.0
  Ti  Ti347  1  0.32322368  0.45829908  0.28333333  1.0
  Ti  Ti348  1  0.32322368  0.58329908  0.28333333  1.0
  Ti  Ti349  1  0.32322368  0.70829908  0.28333333  1.0
  Ti  Ti350  1  0.32322368  0.83329908  0.28333333  1.0
  Ti  Ti351  1  0.32322368  0.95829908  0.28333333  1.0
  Ti  Ti352  1  0.42322368  0.08329908  0.28333333  1.0
  Ti  Ti353  1  0.42322368  0.20829908  0.28333333  1.0
  Ti  Ti354  1  0.42322368  0.33329908  0.28333333  1.0
  Ti  Ti355  1  0.42322368  0.45829908  0.28333333  1.0
  Ti  Ti356  1  0.42322368  0.58329908  0.28333333  1.0
  Ti  Ti357  1  0.42322368  0.70829908  0.28333333  1.0
  Ti  Ti358  1  0.42322368  0.83329908  0.28333333  1.0
  Ti  Ti359  1  0.42322368  0.95829908  0.28333333  1.0
  Ti  Ti360  1  0.52322368  0.08329908  0.28333333  1.0
  Ti  Ti361  1  0.52322368  0.20829908  0.28333333  1.0
  Ti  Ti362  1  0.52322368  0.33329908  0.28333333  1.0
  Ti  Ti363  1  0.52322368  0.45829908  0.28333333  1.0
  Ti  Ti364  1  0.52322368  0.58329908  0.28333333  1.0
  Ti  Ti365  1  0.52322368  0.70829908  0.28333333  1.0
  Ti  Ti366  1  0.52322368  0.83329908  0.28333333  1.0
  Ti  Ti367  1  0.52322368  0.95829908  0.28333333  1.0
  Ti  Ti368  1  0.62322368  0.08329908  0.28333333  1.0
  Ti  Ti369  1  0.62322368  0.20829908  0.28333333  1.0
  Ti  Ti370  1  0.62322368  0.33329908  0.28333333  1.0
  Ti  Ti371  1  0.62322368  0.45829908  0.28333333  1.0
  Ti  Ti372  1  0.62322368  0.58329908  0.28333333  1.0
  Ti  Ti373  1  0.62322368  0.70829908  0.28333333  1.0
  Ti  Ti374  1  0.62322368  0.83329908  0.28333333  1.0
  Ti  Ti375  1  0.62322368  0.95829908  0.28333333  1.0
  Ti  Ti376  1  0.72322368  0.08329908  0.28333333  1.0
  Ti  Ti377  1  0.72322368  0.20829908  0.28333333  1.0
  Ti  Ti378  1  0.72322368  0.33329908  0.28333333  1.0
  Ti  Ti379  1  0.72322368  0.45829908  0.28333333  1.0
  Ti  Ti380  1  0.72322368  0.58329908  0.28333333  1.0
  Ti  Ti381  1  0.72322368  0.70829908  0.28333333  1.0
  Ti  Ti382  1  0.72322368  0.83329908  0.28333333  1.0
  Ti  Ti383  1  0.72322368  0.95829908  0.28333333  1.0
  Ti  Ti384  1  0.82322368  0.08329908  0.28333333  1.0
  Ti  Ti385  1  0.82322368  0.20829908  0.28333333  1.0
  Ti  Ti386  1  0.82322368  0.33329908  0.28333333  1.0
  Ti  Ti387  1  0.82322368  0.45829908  0.28333333  1.0
  Ti  Ti388  1  0.82322368  0.58329908  0.28333333  1.0
  Ti  Ti389  1  0.82322368  0.70829908  0.28333333  1.0
  Ti  Ti390  1  0.82322368  0.83329908  0.28333333  1.0
  Ti  Ti391  1  0.82322368  0.95829908  0.28333333  1.0
  Ti  Ti392  1  0.92322368  0.08329908  0.28333333  1.0
  Ti  Ti393  1  0.92322368  0.20829908  0.28333333  1.0
  Ti  Ti394  1  0.92322368  0.33329908  0.28333333  1.0
  Ti  Ti395  1  0.92322368  0.45829908  0.28333333  1.0
  Ti  Ti396  1  0.92322368  0.58329908  0.28333333  1.0
  Ti  Ti397  1  0.92322368  0.70829908  0.28333333  1.0
  Ti  Ti398  1  0.92322368  0.83329908  0.28333333  1.0
  Ti  Ti399  1  0.92322368  0.95829908  0.28333333  1.0
  Ti  Ti400  1  0.07677632  0.04170092  0.31666667  1.0
  Ti  Ti401  1  0.07677632  0.16670092  0.31666667  1.0
  Ti  Ti402  1  0.07677632  0.29170092  0.31666667  1.0
  Ti  Ti403  1  0.07677632  0.41670092  0.31666667  1.0
  Ti  Ti404  1  0.07677632  0.54170092  0.31666667  1.0
  Ti  Ti405  1  0.07677632  0.66670092  0.31666667  1.0
  Ti  Ti406  1  0.07677632  0.79170092  0.31666667  1.0
  Ti  Ti407  1  0.07677632  0.91670092  0.31666667  1.0
  Ti  Ti408  1  0.17677632  0.04170092  0.31666667  1.0
  Ti  Ti409  1  0.17677632  0.16670092  0.31666667  1.0
  Ti  Ti410  1  0.17677632  0.29170092  0.31666667  1.0
  Ti  Ti411  1  0.17677632  0.41670092  0.31666667  1.0
  Ti  Ti412  1  0.17677632  0.54170092  0.31666667  1.0
  Ti  Ti413  1  0.17677632  0.66670092  0.31666667  1.0
  Ti  Ti414  1  0.17677632  0.79170092  0.31666667  1.0
  Ti  Ti415  1  0.17677632  0.91670092  0.31666667  1.0
  Ti  Ti416  1  0.27677632  0.04170092  0.31666667  1.0
  Ti  Ti417  1  0.27677632  0.16670092  0.31666667  1.0
  Ti  Ti418  1  0.27677632  0.29170092  0.31666667  1.0
  Ti  Ti419  1  0.27677632  0.41670092  0.31666667  1.0
  Ti  Ti420  1  0.27677632  0.54170092  0.31666667  1.0
  Ti  Ti421  1  0.27677632  0.66670092  0.31666667  1.0
  Ti  Ti422  1  0.27677632  0.79170092  0.31666667  1.0
  Ti  Ti423  1  0.27677632  0.91670092  0.31666667  1.0
  Ti  Ti424  1  0.37677632  0.04170092  0.31666667  1.0
  Ti  Ti425  1  0.37677632  0.16670092  0.31666667  1.0
  Ti  Ti426  1  0.37677632  0.29170092  0.31666667  1.0
  Ti  Ti427  1  0.37677632  0.41670092  0.31666667  1.0
  Ti  Ti428  1  0.37677632  0.54170092  0.31666667  1.0
  Ti  Ti429  1  0.37677632  0.66670092  0.31666667  1.0
  Ti  Ti430  1  0.37677632  0.79170092  0.31666667  1.0
  Ti  Ti431  1  0.37677632  0.91670092  0.31666667  1.0
  Ti  Ti432  1  0.47677632  0.04170092  0.31666667  1.0
  Ti  Ti433  1  0.47677632  0.16670092  0.31666667  1.0
  Ti  Ti434  1  0.47677632  0.29170092  0.31666667  1.0
  Ti  Ti435  1  0.47677632  0.41670092  0.31666667  1.0
  Ti  Ti436  1  0.47677632  0.54170092  0.31666667  1.0
  Ti  Ti437  1  0.47677632  0.66670092  0.31666667  1.0
  Ti  Ti438  1  0.47677632  0.79170092  0.31666667  1.0
  Ti  Ti439  1  0.47677632  0.91670092  0.31666667  1.0
  Ti  Ti440  1  0.57677632  0.04170092  0.31666667  1.0
  Ti  Ti441  1  0.57677632  0.16670092  0.31666667  1.0
  Ti  Ti442  1  0.57677632  0.29170092  0.31666667  1.0
  Ti  Ti443  1  0.57677632  0.41670092  0.31666667  1.0
  Ti  Ti444  1  0.57677632  0.54170092  0.31666667  1.0
  Ti  Ti445  1  0.57677632  0.66670092  0.31666667  1.0
  Ti  Ti446  1  0.57677632  0.79170092  0.31666667  1.0
  Ti  Ti447  1  0.57677632  0.91670092  0.31666667  1.0
  Ti  Ti448  1  0.67677632  0.04170092  0.31666667  1.0
  Ti  Ti449  1  0.67677632  0.16670092  0.31666667  1.0
  Ti  Ti450  1  0.67677632  0.29170092  0.31666667  1.0
  Ti  Ti451  1  0.67677632  0.41670092  0.31666667  1.0
  Ti  Ti452  1  0.67677632  0.54170092  0.31666667  1.0
  Ti  Ti453  1  0.67677632  0.66670092  0.31666667  1.0
  Ti  Ti454  1  0.67677632  0.79170092  0.31666667  1.0
  Ti  Ti455  1  0.67677632  0.91670092  0.31666667  1.0
  Ti  Ti456  1  0.77677632  0.04170092  0.31666667  1.0
  Ti  Ti457  1  0.77677632  0.16670092  0.31666667  1.0
  Ti  Ti458  1  0.77677632  0.29170092  0.31666667  1.0
  Ti  Ti459  1  0.77677632  0.41670092  0.31666667  1.0
  Ti  Ti460  1  0.77677632  0.54170092  0.31666667  1.0
  Ti  Ti461  1  0.77677632  0.66670092  0.31666667  1.0
  Ti  Ti462  1  0.77677632  0.79170092  0.31666667  1.0
  Ti  Ti463  1  0.77677632  0.91670092  0.31666667  1.0
  Ti  Ti464  1  0.87677632  0.04170092  0.31666667  1.0
  Ti  Ti465  1  0.87677632  0.16670092  0.31666667  1.0
  Ti  Ti466  1  0.87677632  0.29170092  0.31666667  1.0
  Ti  Ti467  1  0.87677632  0.41670092  0.31666667  1.0
  Ti  Ti468  1  0.87677632  0.54170092  0.31666667  1.0
  Ti  Ti469  1  0.87677632  0.66670092  0.31666667  1.0
  Ti  Ti470  1  0.87677632  0.79170092  0.31666667  1.0
  Ti  Ti471  1  0.87677632  0.91670092  0.31666667  1.0
  Ti  Ti472  1  0.97677632  0.04170092  0.31666667  1.0
  Ti  Ti473  1  0.97677632  0.16670092  0.31666667  1.0
  Ti  Ti474  1  0.97677632  0.29170092  0.31666667  1.0
  Ti  Ti475  1  0.97677632  0.41670092  0.31666667  1.0
  Ti  Ti476  1  0.97677632  0.54170092  0.31666667  1.0
  Ti  Ti477  1  0.97677632  0.66670092  0.31666667  1.0
  Ti  Ti478  1  0.97677632  0.79170092  0.31666667  1.0
  Ti  Ti479  1  0.97677632  0.91670092  0.31666667  1.0
  Ti  Ti480  1  0.07322368  0.10420092  0.28333333  1.0
  Ti  Ti481  1  0.07322368  0.22920092  0.28333333  1.0
  Ti  Ti482  1  0.07322368  0.35420092  0.28333333  1.0
  Ti  Ti483  1  0.07322368  0.47920092  0.28333333  1.0
  Ti  Ti484  1  0.07322368  0.60420092  0.28333333  1.0
  Ti  Ti485  1  0.07322368  0.72920092  0.28333333  1.0
  Ti  Ti486  1  0.07322368  0.85420092  0.28333333  1.0
  Ti  Ti487  1  0.07322368  0.97920092  0.28333333  1.0
  Ti  Ti488  1  0.17322368  0.10420092  0.28333333  1.0
  Ti  Ti489  1  0.17322368  0.22920092  0.28333333  1.0
  Ti  Ti490  1  0.17322368  0.35420092  0.28333333  1.0
  Ti  Ti491  1  0.17322368  0.47920092  0.28333333  1.0
  Ti  Ti492  1  0.17322368  0.60420092  0.28333333  1.0
  Ti  Ti493  1  0.17322368  0.72920092  0.28333333  1.0
  Ti  Ti494  1  0.17322368  0.85420092  0.28333333  1.0
  Ti  Ti495  1  0.17322368  0.97920092  0.28333333  1.0
  Ti  Ti496  1  0.27322368  0.10420092  0.28333333  1.0
  Ti  Ti497  1  0.27322368  0.22920092  0.28333333  1.0
  Ti  Ti498  1  0.27322368  0.35420092  0.28333333  1.0
  Ti  Ti499  1  0.27322368  0.47920092  0.28333333  1.0
  Ti  Ti500  1  0.27322368  0.60420092  0.28333333  1.0
  Ti  Ti501  1  0.27322368  0.72920092  0.28333333  1.0
  Ti  Ti502  1  0.27322368  0.85420092  0.28333333  1.0
  Ti  Ti503  1  0.27322368  0.97920092  0.28333333  1.0
  Ti  Ti504  1  0.37322368  0.10420092  0.28333333  1.0
  Ti  Ti505  1  0.37322368  0.22920092  0.28333333  1.0
  Ti  Ti506  1  0.37322368  0.35420092  0.28333333  1.0
  Ti  Ti507  1  0.37322368  0.47920092  0.28333333  1.0
  Ti  Ti508  1  0.37322368  0.60420092  0.28333333  1.0
  Ti  Ti509  1  0.37322368  0.72920092  0.28333333  1.0
  Ti  Ti510  1  0.37322368  0.85420092  0.28333333  1.0
  Ti  Ti511  1  0.37322368  0.97920092  0.28333333  1.0
  Ti  Ti512  1  0.47322368  0.10420092  0.28333333  1.0
  Ti  Ti513  1  0.47322368  0.22920092  0.28333333  1.0
  Ti  Ti514  1  0.47322368  0.35420092  0.28333333  1.0
  Ti  Ti515  1  0.47322368  0.47920092  0.28333333  1.0
  Ti  Ti516  1  0.47322368  0.60420092  0.28333333  1.0
  Ti  Ti517  1  0.47322368  0.72920092  0.28333333  1.0
  Ti  Ti518  1  0.47322368  0.85420092  0.28333333  1.0
  Ti  Ti519  1  0.47322368  0.97920092  0.28333333  1.0
  Ti  Ti520  1  0.57322368  0.10420092  0.28333333  1.0
  Ti  Ti521  1  0.57322368  0.22920092  0.28333333  1.0
  Ti  Ti522  1  0.57322368  0.35420092  0.28333333  1.0
  Ti  Ti523  1  0.57322368  0.47920092  0.28333333  1.0
  Ti  Ti524  1  0.57322368  0.60420092  0.28333333  1.0
  Ti  Ti525  1  0.57322368  0.72920092  0.28333333  1.0
  Ti  Ti526  1  0.57322368  0.85420092  0.28333333  1.0
  Ti  Ti527  1  0.57322368  0.97920092  0.28333333  1.0
  Ti  Ti528  1  0.67322368  0.10420092  0.28333333  1.0
  Ti  Ti529  1  0.67322368  0.22920092  0.28333333  1.0
  Ti  Ti530  1  0.67322368  0.35420092  0.28333333  1.0
  Ti  Ti531  1  0.67322368  0.47920092  0.28333333  1.0
  Ti  Ti532  1  0.67322368  0.60420092  0.28333333  1.0
  Ti  Ti533  1  0.67322368  0.72920092  0.28333333  1.0
  Ti  Ti534  1  0.67322368  0.85420092  0.28333333  1.0
  Ti  Ti535  1  0.67322368  0.97920092  0.28333333  1.0
  Ti  Ti536  1  0.77322368  0.10420092  0.28333333  1.0
  Ti  Ti537  1  0.77322368  0.22920092  0.28333333  1.0
  Ti  Ti538  1  0.77322368  0.35420092  0.28333333  1.0
  Ti  Ti539  1  0.77322368  0.47920092  0.28333333  1.0
  Ti  Ti540  1  0.77322368  0.60420092  0.28333333  1.0
  Ti  Ti541  1  0.77322368  0.72920092  0.28333333  1.0
  Ti  Ti542  1  0.77322368  0.85420092  0.28333333  1.0
  Ti  Ti543  1  0.77322368  0.97920092  0.28333333  1.0
  Ti  Ti544  1  0.87322368  0.10420092  0.28333333  1.0
  Ti  Ti545  1  0.87322368  0.22920092  0.28333333  1.0
  Ti  Ti546  1  0.87322368  0.35420092  0.28333333  1.0
  Ti  Ti547  1  0.87322368  0.47920092  0.28333333  1.0
  Ti  Ti548  1  0.87322368  0.60420092  0.28333333  1.0
  Ti  Ti549  1  0.87322368  0.72920092  0.28333333  1.0
  Ti  Ti550  1  0.87322368  0.85420092  0.28333333  1.0
  Ti  Ti551  1  0.87322368  0.97920092  0.28333333  1.0
  Ti  Ti552  1  0.97322368  0.10420092  0.28333333  1.0
  Ti  Ti553  1  0.97322368  0.22920092  0.28333333  1.0
  Ti  Ti554  1  0.97322368  0.35420092  0.28333333  1.0
  Ti  Ti555  1  0.97322368  0.47920092  0.28333333  1.0
  Ti  Ti556  1  0.97322368  0.60420092  0.28333333  1.0
  Ti  Ti557  1  0.97322368  0.72920092  0.28333333  1.0
  Ti  Ti558  1  0.97322368  0.85420092  0.28333333  1.0
  Ti  Ti559  1  0.97322368  0.97920092  0.28333333  1.0
  Ti  Ti560  1  0.02677632  0.02079908  0.31666667  1.0
  Ti  Ti561  1  0.02677632  0.14579908  0.31666667  1.0
  Ti  Ti562  1  0.02677632  0.27079908  0.31666667  1.0
  Ti  Ti563  1  0.02677632  0.39579908  0.31666667  1.0
  Ti  Ti564  1  0.02677632  0.52079908  0.31666667  1.0
  Ti  Ti565  1  0.02677632  0.64579908  0.31666667  1.0
  Ti  Ti566  1  0.02677632  0.77079908  0.31666667  1.0
  Ti  Ti567  1  0.02677632  0.89579908  0.31666667  1.0
  Ti  Ti568  1  0.12677632  0.02079908  0.31666667  1.0
  Ti  Ti569  1  0.12677632  0.14579908  0.31666667  1.0
  Ti  Ti570  1  0.12677632  0.27079908  0.31666667  1.0
  Ti  Ti571  1  0.12677632  0.39579908  0.31666667  1.0
  Ti  Ti572  1  0.12677632  0.52079908  0.31666667  1.0
  Ti  Ti573  1  0.12677632  0.64579908  0.31666667  1.0
  Ti  Ti574  1  0.12677632  0.77079908  0.31666667  1.0
  Ti  Ti575  1  0.12677632  0.89579908  0.31666667  1.0
  Ti  Ti576  1  0.22677632  0.02079908  0.31666667  1.0
  Ti  Ti577  1  0.22677632  0.14579908  0.31666667  1.0
  Ti  Ti578  1  0.22677632  0.27079908  0.31666667  1.0
  Ti  Ti579  1  0.22677632  0.39579908  0.31666667  1.0
  Ti  Ti580  1  0.22677632  0.52079908  0.31666667  1.0
  Ti  Ti581  1  0.22677632  0.64579908  0.31666667  1.0
  Ti  Ti582  1  0.22677632  0.77079908  0.31666667  1.0
  Ti  Ti583  1  0.22677632  0.89579908  0.31666667  1.0
  Ti  Ti584  1  0.32677632  0.02079908  0.31666667  1.0
  Ti  Ti585  1  0.32677632  0.14579908  0.31666667  1.0
  Ti  Ti586  1  0.32677632  0.27079908  0.31666667  1.0
  Ti  Ti587  1  0.32677632  0.39579908  0.31666667  1.0
  Ti  Ti588  1  0.32677632  0.52079908  0.31666667  1.0
  Ti  Ti589  1  0.32677632  0.64579908  0.31666667  1.0
  Ti  Ti590  1  0.32677632  0.77079908  0.31666667  1.0
  Ti  Ti591  1  0.32677632  0.89579908  0.31666667  1.0
  Ti  Ti592  1  0.42677632  0.02079908  0.31666667  1.0
  Ti  Ti593  1  0.42677632  0.14579908  0.31666667  1.0
  Ti  Ti594  1  0.42677632  0.27079908  0.31666667  1.0
  Ti  Ti595  1  0.42677632  0.39579908  0.31666667  1.0
  Ti  Ti596  1  0.42677632  0.52079908  0.31666667  1.0
  Ti  Ti597  1  0.42677632  0.64579908  0.31666667  1.0
  Ti  Ti598  1  0.42677632  0.77079908  0.31666667  1.0
  Ti  Ti599  1  0.42677632  0.89579908  0.31666667  1.0
  Ti  Ti600  1  0.52677632  0.02079908  0.31666667  1.0
  Ti  Ti601  1  0.52677632  0.14579908  0.31666667  1.0
  Ti  Ti602  1  0.52677632  0.27079908  0.31666667  1.0
  Ti  Ti603  1  0.52677632  0.39579908  0.31666667  1.0
  Ti  Ti604  1  0.52677632  0.52079908  0.31666667  1.0
  Ti  Ti605  1  0.52677632  0.64579908  0.31666667  1.0
  Ti  Ti606  1  0.52677632  0.77079908  0.31666667  1.0
  Ti  Ti607  1  0.52677632  0.89579908  0.31666667  1.0
  Ti  Ti608  1  0.62677632  0.02079908  0.31666667  1.0
  Ti  Ti609  1  0.62677632  0.14579908  0.31666667  1.0
  Ti  Ti610  1  0.62677632  0.27079908  0.31666667  1.0
  Ti  Ti611  1  0.62677632  0.39579908  0.31666667  1.0
  Ti  Ti612  1  0.62677632  0.52079908  0.31666667  1.0
  Ti  Ti613  1  0.62677632  0.64579908  0.31666667  1.0
  Ti  Ti614  1  0.62677632  0.77079908  0.31666667  1.0
  Ti  Ti615  1  0.62677632  0.89579908  0.31666667  1.0
  Ti  Ti616  1  0.72677632  0.02079908  0.31666667  1.0
  Ti  Ti617  1  0.72677632  0.14579908  0.31666667  1.0
  Ti  Ti618  1  0.72677632  0.27079908  0.31666667  1.0
  Ti  Ti619  1  0.72677632  0.39579908  0.31666667  1.0
  Ti  Ti620  1  0.72677632  0.52079908  0.31666667  1.0
  Ti  Ti621  1  0.72677632  0.64579908  0.31666667  1.0
  Ti  Ti622  1  0.72677632  0.77079908  0.31666667  1.0
  Ti  Ti623  1  0.72677632  0.89579908  0.31666667  1.0
  Ti  Ti624  1  0.82677632  0.02079908  0.31666667  1.0
  Ti  Ti625  1  0.82677632  0.14579908  0.31666667  1.0
  Ti  Ti626  1  0.82677632  0.27079908  0.31666667  1.0
  Ti  Ti627  1  0.82677632  0.39579908  0.31666667  1.0
  Ti  Ti628  1  0.82677632  0.52079908  0.31666667  1.0
  Ti  Ti629  1  0.82677632  0.64579908  0.31666667  1.0
  Ti  Ti630  1  0.82677632  0.77079908  0.31666667  1.0
  Ti  Ti631  1  0.82677632  0.89579908  0.31666667  1.0
  Ti  Ti632  1  0.92677632  0.02079908  0.31666667  1.0
  Ti  Ti633  1  0.92677632  0.14579908  0.31666667  1.0
  Ti  Ti634  1  0.92677632  0.27079908  0.31666667  1.0
  Ti  Ti635  1  0.92677632  0.39579908  0.31666667  1.0
  Ti  Ti636  1  0.92677632  0.52079908  0.31666667  1.0
  Ti  Ti637  1  0.92677632  0.64579908  0.31666667  1.0
  Ti  Ti638  1  0.92677632  0.77079908  0.31666667  1.0
  Ti  Ti639  1  0.92677632  0.89579908  0.31666667  1.0
  Ti  Ti640  1  0.02322368  0.08329908  0.35000000  1.0
  Ti  Ti641  1  0.02322368  0.20829908  0.35000000  1.0
  Ti  Ti642  1  0.02322368  0.33329908  0.35000000  1.0
  Ti  Ti643  1  0.02322368  0.45829908  0.35000000  1.0
  Ti  Ti644  1  0.02322368  0.58329908  0.35000000  1.0
  Ti  Ti645  1  0.02322368  0.70829908  0.35000000  1.0
  Ti  Ti646  1  0.02322368  0.83329908  0.35000000  1.0
  Ti  Ti647  1  0.02322368  0.95829908  0.35000000  1.0
  Ti  Ti648  1  0.12322368  0.08329908  0.35000000  1.0
  Ti  Ti649  1  0.12322368  0.20829908  0.35000000  1.0
  Ti  Ti650  1  0.12322368  0.33329908  0.35000000  1.0
  Ti  Ti651  1  0.12322368  0.45829908  0.35000000  1.0
  Ti  Ti652  1  0.12322368  0.58329908  0.35000000  1.0
  Ti  Ti653  1  0.12322368  0.70829908  0.35000000  1.0
  Ti  Ti654  1  0.12322368  0.83329908  0.35000000  1.0
  Ti  Ti655  1  0.12322368  0.95829908  0.35000000  1.0
  Ti  Ti656  1  0.22322368  0.08329908  0.35000000  1.0
  Ti  Ti657  1  0.22322368  0.20829908  0.35000000  1.0
  Ti  Ti658  1  0.22322368  0.33329908  0.35000000  1.0
  Ti  Ti659  1  0.22322368  0.45829908  0.35000000  1.0
  Ti  Ti660  1  0.22322368  0.58329908  0.35000000  1.0
  Ti  Ti661  1  0.22322368  0.70829908  0.35000000  1.0
  Ti  Ti662  1  0.22322368  0.83329908  0.35000000  1.0
  Ti  Ti663  1  0.22322368  0.95829908  0.35000000  1.0
  Ti  Ti664  1  0.32322368  0.08329908  0.35000000  1.0
  Ti  Ti665  1  0.32322368  0.20829908  0.35000000  1.0
  Ti  Ti666  1  0.32322368  0.33329908  0.35000000  1.0
  Ti  Ti667  1  0.32322368  0.45829908  0.35000000  1.0
  Ti  Ti668  1  0.32322368  0.58329908  0.35000000  1.0
  Ti  Ti669  1  0.32322368  0.70829908  0.35000000  1.0
  Ti  Ti670  1  0.32322368  0.83329908  0.35000000  1.0
  Ti  Ti671  1  0.32322368  0.95829908  0.35000000  1.0
  Ti  Ti672  1  0.42322368  0.08329908  0.35000000  1.0
  Ti  Ti673  1  0.42322368  0.20829908  0.35000000  1.0
  Ti  Ti674  1  0.42322368  0.33329908  0.35000000  1.0
  Ti  Ti675  1  0.42322368  0.45829908  0.35000000  1.0
  Ti  Ti676  1  0.42322368  0.58329908  0.35000000  1.0
  Ti  Ti677  1  0.42322368  0.70829908  0.35000000  1.0
  Ti  Ti678  1  0.42322368  0.83329908  0.35000000  1.0
  Ti  Ti679  1  0.42322368  0.95829908  0.35000000  1.0
  Ti  Ti680  1  0.52322368  0.08329908  0.35000000  1.0
  Ti  Ti681  1  0.52322368  0.20829908  0.35000000  1.0
  Ti  Ti682  1  0.52322368  0.33329908  0.35000000  1.0
  Ti  Ti683  1  0.52322368  0.45829908  0.35000000  1.0
  Ti  Ti684  1  0.52322368  0.58329908  0.35000000  1.0
  Ti  Ti685  1  0.52322368  0.70829908  0.35000000  1.0
  Ti  Ti686  1  0.52322368  0.83329908  0.35000000  1.0
  Ti  Ti687  1  0.52322368  0.95829908  0.35000000  1.0
  Ti  Ti688  1  0.62322368  0.08329908  0.35000000  1.0
  Ti  Ti689  1  0.62322368  0.20829908  0.35000000  1.0
  Ti  Ti690  1  0.62322368  0.33329908  0.35000000  1.0
  Ti  Ti691  1  0.62322368  0.45829908  0.35000000  1.0
  Ti  Ti692  1  0.62322368  0.58329908  0.35000000  1.0
  Ti  Ti693  1  0.62322368  0.70829908  0.35000000  1.0
  Ti  Ti694  1  0.62322368  0.83329908  0.35000000  1.0
  Ti  Ti695  1  0.62322368  0.95829908  0.35000000  1.0
  Ti  Ti696  1  0.72322368  0.08329908  0.35000000  1.0
  Ti  Ti697  1  0.72322368  0.20829908  0.35000000  1.0
  Ti  Ti698  1  0.72322368  0.33329908  0.35000000  1.0
  Ti  Ti699  1  0.72322368  0.45829908  0.35000000  1.0
  Ti  Ti700  1  0.72322368  0.58329908  0.35000000  1.0
  Ti  Ti701  1  0.72322368  0.70829908  0.35000000  1.0
  Ti  Ti702  1  0.72322368  0.83329908  0.35000000  1.0
  Ti  Ti703  1  0.72322368  0.95829908  0.35000000  1.0
  Ti  Ti704  1  0.82322368  0.08329908  0.35000000  1.0
  Ti  Ti705  1  0.82322368  0.20829908  0.35000000  1.0
  Ti  Ti706  1  0.82322368  0.33329908  0.35000000  1.0
  Ti  Ti707  1  0.82322368  0.45829908  0.35000000  1.0
  Ti  Ti708  1  0.82322368  0.58329908  0.35000000  1.0
  Ti  Ti709  1  0.82322368  0.70829908  0.35000000  1.0
  Ti  Ti710  1  0.82322368  0.83329908  0.35000000  1.0
  Ti  Ti711  1  0.82322368  0.95829908  0.35000000  1.0
  Ti  Ti712  1  0.92322368  0.08329908  0.35000000  1.0
  Ti  Ti713  1  0.92322368  0.20829908  0.35000000  1.0
  Ti  Ti714  1  0.92322368  0.33329908  0.35000000  1.0
  Ti  Ti715  1  0.92322368  0.45829908  0.35000000  1.0
  Ti  Ti716  1  0.92322368  0.58329908  0.35000000  1.0
  Ti  Ti717  1  0.92322368  0.70829908  0.35000000  1.0
  Ti  Ti718  1  0.92322368  0.83329908  0.35000000  1.0
  Ti  Ti719  1  0.92322368  0.95829908  0.35000000  1.0
  Ti  Ti720  1  0.07677632  0.04170092  0.38333333  1.0
  Ti  Ti721  1  0.07677632  0.16670092  0.38333333  1.0
  Ti  Ti722  1  0.07677632  0.29170092  0.38333333  1.0
  Ti  Ti723  1  0.07677632  0.41670092  0.38333333  1.0
  Ti  Ti724  1  0.07677632  0.54170092  0.38333333  1.0
  Ti  Ti725  1  0.07677632  0.66670092  0.38333333  1.0
  Ti  Ti726  1  0.07677632  0.79170092  0.38333333  1.0
  Ti  Ti727  1  0.07677632  0.91670092  0.38333333  1.0
  Ti  Ti728  1  0.17677632  0.04170092  0.38333333  1.0
  Ti  Ti729  1  0.17677632  0.16670092  0.38333333  1.0
  Ti  Ti730  1  0.17677632  0.29170092  0.38333333  1.0
  Ti  Ti731  1  0.17677632  0.41670092  0.38333333  1.0
  Ti  Ti732  1  0.17677632  0.54170092  0.38333333  1.0
  Ti  Ti733  1  0.17677632  0.66670092  0.38333333  1.0
  Ti  Ti734  1  0.17677632  0.79170092  0.38333333  1.0
  Ti  Ti735  1  0.17677632  0.91670092  0.38333333  1.0
  Ti  Ti736  1  0.27677632  0.04170092  0.38333333  1.0
  Ti  Ti737  1  0.27677632  0.16670092  0.38333333  1.0
  Ti  Ti738  1  0.27677632  0.29170092  0.38333333  1.0
  Ti  Ti739  1  0.27677632  0.41670092  0.38333333  1.0
  Ti  Ti740  1  0.27677632  0.54170092  0.38333333  1.0
  Ti  Ti741  1  0.27677632  0.66670092  0.38333333  1.0
  Ti  Ti742  1  0.27677632  0.79170092  0.38333333  1.0
  Ti  Ti743  1  0.27677632  0.91670092  0.38333333  1.0
  Ti  Ti744  1  0.37677632  0.04170092  0.38333333  1.0
  Ti  Ti745  1  0.37677632  0.16670092  0.38333333  1.0
  Ti  Ti746  1  0.37677632  0.29170092  0.38333333  1.0
  Ti  Ti747  1  0.37677632  0.41670092  0.38333333  1.0
  Ti  Ti748  1  0.37677632  0.54170092  0.38333333  1.0
  Ti  Ti749  1  0.37677632  0.66670092  0.38333333  1.0
  Ti  Ti750  1  0.37677632  0.79170092  0.38333333  1.0
  Ti  Ti751  1  0.37677632  0.91670092  0.38333333  1.0
  Ti  Ti752  1  0.47677632  0.04170092  0.38333333  1.0
  Ti  Ti753  1  0.47677632  0.16670092  0.38333333  1.0
  Ti  Ti754  1  0.47677632  0.29170092  0.38333333  1.0
  Ti  Ti755  1  0.47677632  0.41670092  0.38333333  1.0
  Ti  Ti756  1  0.47677632  0.54170092  0.38333333  1.0
  Ti  Ti757  1  0.47677632  0.66670092  0.38333333  1.0
  Ti  Ti758  1  0.47677632  0.79170092  0.38333333  1.0
  Ti  Ti759  1  0.47677632  0.91670092  0.38333333  1.0
  Ti  Ti760  1  0.57677632  0.04170092  0.38333333  1.0
  Ti  Ti761  1  0.57677632  0.16670092  0.38333333  1.0
  Ti  Ti762  1  0.57677632  0.29170092  0.38333333  1.0
  Ti  Ti763  1  0.57677632  0.41670092  0.38333333  1.0
  Ti  Ti764  1  0.57677632  0.54170092  0.38333333  1.0
  Ti  Ti765  1  0.57677632  0.66670092  0.38333333  1.0
  Ti  Ti766  1  0.57677632  0.79170092  0.38333333  1.0
  Ti  Ti767  1  0.57677632  0.91670092  0.38333333  1.0
  Ti  Ti768  1  0.67677632  0.04170092  0.38333333  1.0
  Ti  Ti769  1  0.67677632  0.16670092  0.38333333  1.0
  Ti  Ti770  1  0.67677632  0.29170092  0.38333333  1.0
  Ti  Ti771  1  0.67677632  0.41670092  0.38333333  1.0
  Ti  Ti772  1  0.67677632  0.54170092  0.38333333  1.0
  Ti  Ti773  1  0.67677632  0.66670092  0.38333333  1.0
  Ti  Ti774  1  0.67677632  0.79170092  0.38333333  1.0
  Ti  Ti775  1  0.67677632  0.91670092  0.38333333  1.0
  Ti  Ti776  1  0.77677632  0.04170092  0.38333333  1.0
  Ti  Ti777  1  0.77677632  0.16670092  0.38333333  1.0
  Ti  Ti778  1  0.77677632  0.29170092  0.38333333  1.0
  Ti  Ti779  1  0.77677632  0.41670092  0.38333333  1.0
  Ti  Ti780  1  0.77677632  0.54170092  0.38333333  1.0
  Ti  Ti781  1  0.77677632  0.66670092  0.38333333  1.0
  Ti  Ti782  1  0.77677632  0.79170092  0.38333333  1.0
  Ti  Ti783  1  0.77677632  0.91670092  0.38333333  1.0
  Ti  Ti784  1  0.87677632  0.04170092  0.38333333  1.0
  Ti  Ti785  1  0.87677632  0.16670092  0.38333333  1.0
  Ti  Ti786  1  0.87677632  0.29170092  0.38333333  1.0
  Ti  Ti787  1  0.87677632  0.41670092  0.38333333  1.0
  Ti  Ti788  1  0.87677632  0.54170092  0.38333333  1.0
  Ti  Ti789  1  0.87677632  0.66670092  0.38333333  1.0
  Ti  Ti790  1  0.87677632  0.79170092  0.38333333  1.0
  Ti  Ti791  1  0.87677632  0.91670092  0.38333333  1.0
  Ti  Ti792  1  0.97677632  0.04170092  0.38333333  1.0
  Ti  Ti793  1  0.97677632  0.16670092  0.38333333  1.0
  Ti  Ti794  1  0.97677632  0.29170092  0.38333333  1.0
  Ti  Ti795  1  0.97677632  0.41670092  0.38333333  1.0
  Ti  Ti796  1  0.97677632  0.54170092  0.38333333  1.0
  Ti  Ti797  1  0.97677632  0.66670092  0.38333333  1.0
  Ti  Ti798  1  0.97677632  0.79170092  0.38333333  1.0
  Ti  Ti799  1  0.97677632  0.91670092  0.38333333  1.0
  Ti  Ti800  1  0.07322368  0.10420092  0.35000000  1.0
  Ti  Ti801  1  0.07322368  0.22920092  0.35000000  1.0
  Ti  Ti802  1  0.07322368  0.35420092  0.35000000  1.0
  Ti  Ti803  1  0.07322368  0.47920092  0.35000000  1.0
  Ti  Ti804  1  0.07322368  0.60420092  0.35000000  1.0
  Ti  Ti805  1  0.07322368  0.72920092  0.35000000  1.0
  Ti  Ti806  1  0.07322368  0.85420092  0.35000000  1.0
  Ti  Ti807  1  0.07322368  0.97920092  0.35000000  1.0
  Ti  Ti808  1  0.17322368  0.10420092  0.35000000  1.0
  Ti  Ti809  1  0.17322368  0.22920092  0.35000000  1.0
  Ti  Ti810  1  0.17322368  0.35420092  0.35000000  1.0
  Ti  Ti811  1  0.17322368  0.47920092  0.35000000  1.0
  Ti  Ti812  1  0.17322368  0.60420092  0.35000000  1.0
  Ti  Ti813  1  0.17322368  0.72920092  0.35000000  1.0
  Ti  Ti814  1  0.17322368  0.85420092  0.35000000  1.0
  Ti  Ti815  1  0.17322368  0.97920092  0.35000000  1.0
  Ti  Ti816  1  0.27322368  0.10420092  0.35000000  1.0
  Ti  Ti817  1  0.27322368  0.22920092  0.35000000  1.0
  Ti  Ti818  1  0.27322368  0.35420092  0.35000000  1.0
  Ti  Ti819  1  0.27322368  0.47920092  0.35000000  1.0
  Ti  Ti820  1  0.27322368  0.60420092  0.35000000  1.0
  Ti  Ti821  1  0.27322368  0.72920092  0.35000000  1.0
  Ti  Ti822  1  0.27322368  0.85420092  0.35000000  1.0
  Ti  Ti823  1  0.27322368  0.97920092  0.35000000  1.0
  Ti  Ti824  1  0.37322368  0.10420092  0.35000000  1.0
  Ti  Ti825  1  0.37322368  0.22920092  0.35000000  1.0
  Ti  Ti826  1  0.37322368  0.35420092  0.35000000  1.0
  Ti  Ti827  1  0.37322368  0.47920092  0.35000000  1.0
  Ti  Ti828  1  0.37322368  0.60420092  0.35000000  1.0
  Ti  Ti829  1  0.37322368  0.72920092  0.35000000  1.0
  Ti  Ti830  1  0.37322368  0.85420092  0.35000000  1.0
  Ti  Ti831  1  0.37322368  0.97920092  0.35000000  1.0
  Ti  Ti832  1  0.47322368  0.10420092  0.35000000  1.0
  Ti  Ti833  1  0.47322368  0.22920092  0.35000000  1.0
  Ti  Ti834  1  0.47322368  0.35420092  0.35000000  1.0
  Ti  Ti835  1  0.47322368  0.47920092  0.35000000  1.0
  Ti  Ti836  1  0.47322368  0.60420092  0.35000000  1.0
  Ti  Ti837  1  0.47322368  0.72920092  0.35000000  1.0
  Ti  Ti838  1  0.47322368  0.85420092  0.35000000  1.0
  Ti  Ti839  1  0.47322368  0.97920092  0.35000000  1.0
  Ti  Ti840  1  0.57322368  0.10420092  0.35000000  1.0
  Ti  Ti841  1  0.57322368  0.22920092  0.35000000  1.0
  Ti  Ti842  1  0.57322368  0.35420092  0.35000000  1.0
  Ti  Ti843  1  0.57322368  0.47920092  0.35000000  1.0
  Ti  Ti844  1  0.57322368  0.60420092  0.35000000  1.0
  Ti  Ti845  1  0.57322368  0.72920092  0.35000000  1.0
  Ti  Ti846  1  0.57322368  0.85420092  0.35000000  1.0
  Ti  Ti847  1  0.57322368  0.97920092  0.35000000  1.0
  Ti  Ti848  1  0.67322368  0.10420092  0.35000000  1.0
  Ti  Ti849  1  0.67322368  0.22920092  0.35000000  1.0
  Ti  Ti850  1  0.67322368  0.35420092  0.35000000  1.0
  Ti  Ti851  1  0.67322368  0.47920092  0.35000000  1.0
  Ti  Ti852  1  0.67322368  0.60420092  0.35000000  1.0
  Ti  Ti853  1  0.67322368  0.72920092  0.35000000  1.0
  Ti  Ti854  1  0.67322368  0.85420092  0.35000000  1.0
  Ti  Ti855  1  0.67322368  0.97920092  0.35000000  1.0
  Ti  Ti856  1  0.77322368  0.10420092  0.35000000  1.0
  Ti  Ti857  1  0.77322368  0.22920092  0.35000000  1.0
  Ti  Ti858  1  0.77322368  0.35420092  0.35000000  1.0
  Ti  Ti859  1  0.77322368  0.47920092  0.35000000  1.0
  Ti  Ti860  1  0.77322368  0.60420092  0.35000000  1.0
  Ti  Ti861  1  0.77322368  0.72920092  0.35000000  1.0
  Ti  Ti862  1  0.77322368  0.85420092  0.35000000  1.0
  Ti  Ti863  1  0.77322368  0.97920092  0.35000000  1.0
  Ti  Ti864  1  0.87322368  0.10420092  0.35000000  1.0
  Ti  Ti865  1  0.87322368  0.22920092  0.35000000  1.0
  Ti  Ti866  1  0.87322368  0.35420092  0.35000000  1.0
  Ti  Ti867  1  0.87322368  0.47920092  0.35000000  1.0
  Ti  Ti868  1  0.87322368  0.60420092  0.35000000  1.0
  Ti  Ti869  1  0.87322368  0.72920092  0.35000000  1.0
  Ti  Ti870  1  0.87322368  0.85420092  0.35000000  1.0
  Ti  Ti871  1  0.87322368  0.97920092  0.35000000  1.0
  Ti  Ti872  1  0.97322368  0.10420092  0.35000000  1.0
  Ti  Ti873  1  0.97322368  0.22920092  0.35000000  1.0
  Ti  Ti874  1  0.97322368  0.35420092  0.35000000  1.0
  Ti  Ti875  1  0.97322368  0.47920092  0.35000000  1.0
  Ti  Ti876  1  0.97322368  0.60420092  0.35000000  1.0
  Ti  Ti877  1  0.97322368  0.72920092  0.35000000  1.0
  Ti  Ti878  1  0.97322368  0.85420092  0.35000000  1.0
  Ti  Ti879  1  0.97322368  0.97920092  0.35000000  1.0
  Ti  Ti880  1  0.02677632  0.02079908  0.38333333  1.0
  Ti  Ti881  1  0.02677632  0.14579908  0.38333333  1.0
  Ti  Ti882  1  0.02677632  0.27079908  0.38333333  1.0
  Ti  Ti883  1  0.02677632  0.39579908  0.38333333  1.0
  Ti  Ti884  1  0.02677632  0.52079908  0.38333333  1.0
  Ti  Ti885  1  0.02677632  0.64579908  0.38333333  1.0
  Ti  Ti886  1  0.02677632  0.77079908  0.38333333  1.0
  Ti  Ti887  1  0.02677632  0.89579908  0.38333333  1.0
  Ti  Ti888  1  0.12677632  0.02079908  0.38333333  1.0
  Ti  Ti889  1  0.12677632  0.14579908  0.38333333  1.0
  Ti  Ti890  1  0.12677632  0.27079908  0.38333333  1.0
  Ti  Ti891  1  0.12677632  0.39579908  0.38333333  1.0
  Ti  Ti892  1  0.12677632  0.52079908  0.38333333  1.0
  Ti  Ti893  1  0.12677632  0.64579908  0.38333333  1.0
  Ti  Ti894  1  0.12677632  0.77079908  0.38333333  1.0
  Ti  Ti895  1  0.12677632  0.89579908  0.38333333  1.0
  Ti  Ti896  1  0.22677632  0.02079908  0.38333333  1.0
  Ti  Ti897  1  0.22677632  0.14579908  0.38333333  1.0
  Ti  Ti898  1  0.22677632  0.27079908  0.38333333  1.0
  Ti  Ti899  1  0.22677632  0.39579908  0.38333333  1.0
  Ti  Ti900  1  0.22677632  0.52079908  0.38333333  1.0
  Ti  Ti901  1  0.22677632  0.64579908  0.38333333  1.0
  Ti  Ti902  1  0.22677632  0.77079908  0.38333333  1.0
  Ti  Ti903  1  0.22677632  0.89579908  0.38333333  1.0
  Ti  Ti904  1  0.32677632  0.02079908  0.38333333  1.0
  Ti  Ti905  1  0.32677632  0.14579908  0.38333333  1.0
  Ti  Ti906  1  0.32677632  0.27079908  0.38333333  1.0
  Ti  Ti907  1  0.32677632  0.39579908  0.38333333  1.0
  Ti  Ti908  1  0.32677632  0.52079908  0.38333333  1.0
  Ti  Ti909  1  0.32677632  0.64579908  0.38333333  1.0
  Ti  Ti910  1  0.32677632  0.77079908  0.38333333  1.0
  Ti  Ti911  1  0.32677632  0.89579908  0.38333333  1.0
  Ti  Ti912  1  0.42677632  0.02079908  0.38333333  1.0
  Ti  Ti913  1  0.42677632  0.14579908  0.38333333  1.0
  Ti  Ti914  1  0.42677632  0.27079908  0.38333333  1.0
  Ti  Ti915  1  0.42677632  0.39579908  0.38333333  1.0
  Ti  Ti916  1  0.42677632  0.52079908  0.38333333  1.0
  Ti  Ti917  1  0.42677632  0.64579908  0.38333333  1.0
  Ti  Ti918  1  0.42677632  0.77079908  0.38333333  1.0
  Ti  Ti919  1  0.42677632  0.89579908  0.38333333  1.0
  Ti  Ti920  1  0.52677632  0.02079908  0.38333333  1.0
  Ti  Ti921  1  0.52677632  0.14579908  0.38333333  1.0
  Ti  Ti922  1  0.52677632  0.27079908  0.38333333  1.0
  Ti  Ti923  1  0.52677632  0.39579908  0.38333333  1.0
  Ti  Ti924  1  0.52677632  0.52079908  0.38333333  1.0
  Ti  Ti925  1  0.52677632  0.64579908  0.38333333  1.0
  Ti  Ti926  1  0.52677632  0.77079908  0.38333333  1.0
  Ti  Ti927  1  0.52677632  0.89579908  0.38333333  1.0
  Ti  Ti928  1  0.62677632  0.02079908  0.38333333  1.0
  Ti  Ti929  1  0.62677632  0.14579908  0.38333333  1.0
  Ti  Ti930  1  0.62677632  0.27079908  0.38333333  1.0
  Ti  Ti931  1  0.62677632  0.39579908  0.38333333  1.0
  Ti  Ti932  1  0.62677632  0.52079908  0.38333333  1.0
  Ti  Ti933  1  0.62677632  0.64579908  0.38333333  1.0
  Ti  Ti934  1  0.62677632  0.77079908  0.38333333  1.0
  Ti  Ti935  1  0.62677632  0.89579908  0.38333333  1.0
  Ti  Ti936  1  0.72677632  0.02079908  0.38333333  1.0
  Ti  Ti937  1  0.72677632  0.14579908  0.38333333  1.0
  Ti  Ti938  1  0.72677632  0.27079908  0.38333333  1.0
  Ti  Ti939  1  0.72677632  0.39579908  0.38333333  1.0
  Ti  Ti940  1  0.72677632  0.52079908  0.38333333  1.0
  Ti  Ti941  1  0.72677632  0.64579908  0.38333333  1.0
  Ti  Ti942  1  0.72677632  0.77079908  0.38333333  1.0
  Ti  Ti943  1  0.72677632  0.89579908  0.38333333  1.0
  Ti  Ti944  1  0.82677632  0.02079908  0.38333333  1.0
  Ti  Ti945  1  0.82677632  0.14579908  0.38333333  1.0
  Ti  Ti946  1  0.82677632  0.27079908  0.38333333  1.0
  Ti  Ti947  1  0.82677632  0.39579908  0.38333333  1.0
  Ti  Ti948  1  0.82677632  0.52079908  0.38333333  1.0
  Ti  Ti949  1  0.82677632  0.64579908  0.38333333  1.0
  Ti  Ti950  1  0.82677632  0.77079908  0.38333333  1.0
  Ti  Ti951  1  0.82677632  0.89579908  0.38333333  1.0
  Ti  Ti952  1  0.92677632  0.02079908  0.38333333  1.0
  Ti  Ti953  1  0.92677632  0.14579908  0.38333333  1.0
  Ti  Ti954  1  0.92677632  0.27079908  0.38333333  1.0
  Ti  Ti955  1  0.92677632  0.39579908  0.38333333  1.0
  Ti  Ti956  1  0.92677632  0.52079908  0.38333333  1.0
  Ti  Ti957  1  0.92677632  0.64579908  0.38333333  1.0
  Ti  Ti958  1  0.92677632  0.77079908  0.38333333  1.0
  Ti  Ti959  1  0.92677632  0.89579908  0.38333333  1.0
  Ti  Ti960  1  0.02322368  0.08329908  0.41666667  1.0
  Ti  Ti961  1  0.02322368  0.20829908  0.41666667  1.0
  Ti  Ti962  1  0.02322368  0.33329908  0.41666667  1.0
  Ti  Ti963  1  0.02322368  0.45829908  0.41666667  1.0
  Ti  Ti964  1  0.02322368  0.58329908  0.41666667  1.0
  Ti  Ti965  1  0.02322368  0.70829908  0.41666667  1.0
  Ti  Ti966  1  0.02322368  0.83329908  0.41666667  1.0
  Ti  Ti967  1  0.02322368  0.95829908  0.41666667  1.0
  Ti  Ti968  1  0.12322368  0.08329908  0.41666667  1.0
  Ti  Ti969  1  0.12322368  0.20829908  0.41666667  1.0
  Ti  Ti970  1  0.12322368  0.33329908  0.41666667  1.0
  Ti  Ti971  1  0.12322368  0.45829908  0.41666667  1.0
  Ti  Ti972  1  0.12322368  0.58329908  0.41666667  1.0
  Ti  Ti973  1  0.12322368  0.70829908  0.41666667  1.0
  Ti  Ti974  1  0.12322368  0.83329908  0.41666667  1.0
  Ti  Ti975  1  0.12322368  0.95829908  0.41666667  1.0
  Ti  Ti976  1  0.22322368  0.08329908  0.41666667  1.0
  Ti  Ti977  1  0.22322368  0.20829908  0.41666667  1.0
  Ti  Ti978  1  0.22322368  0.33329908  0.41666667  1.0
  Ti  Ti979  1  0.22322368  0.45829908  0.41666667  1.0
  Ti  Ti980  1  0.22322368  0.58329908  0.41666667  1.0
  Ti  Ti981  1  0.22322368  0.70829908  0.41666667  1.0
  Ti  Ti982  1  0.22322368  0.83329908  0.41666667  1.0
  Ti  Ti983  1  0.22322368  0.95829908  0.41666667  1.0
  Ti  Ti984  1  0.32322368  0.08329908  0.41666667  1.0
  Ti  Ti985  1  0.32322368  0.20829908  0.41666667  1.0
  Ti  Ti986  1  0.32322368  0.33329908  0.41666667  1.0
  Ti  Ti987  1  0.32322368  0.45829908  0.41666667  1.0
  Ti  Ti988  1  0.32322368  0.58329908  0.41666667  1.0
  Ti  Ti989  1  0.32322368  0.70829908  0.41666667  1.0
  Ti  Ti990  1  0.32322368  0.83329908  0.41666667  1.0
  Ti  Ti991  1  0.32322368  0.95829908  0.41666667  1.0
  Ti  Ti992  1  0.42322368  0.08329908  0.41666667  1.0
  Ti  Ti993  1  0.42322368  0.20829908  0.41666667  1.0
  Ti  Ti994  1  0.42322368  0.33329908  0.41666667  1.0
  Ti  Ti995  1  0.42322368  0.45829908  0.41666667  1.0
  Ti  Ti996  1  0.42322368  0.58329908  0.41666667  1.0
  Ti  Ti997  1  0.42322368  0.70829908  0.41666667  1.0
  Ti  Ti998  1  0.42322368  0.83329908  0.41666667  1.0
  Ti  Ti999  1  0.42322368  0.95829908  0.41666667  1.0
  Ti  Ti1000  1  0.52322368  0.08329908  0.41666667  1.0
  Ti  Ti1001  1  0.52322368  0.20829908  0.41666667  1.0
  Ti  Ti1002  1  0.52322368  0.33329908  0.41666667  1.0
  Ti  Ti1003  1  0.52322368  0.45829908  0.41666667  1.0
  Ti  Ti1004  1  0.52322368  0.58329908  0.41666667  1.0
  Ti  Ti1005  1  0.52322368  0.70829908  0.41666667  1.0
  Ti  Ti1006  1  0.52322368  0.83329908  0.41666667  1.0
  Ti  Ti1007  1  0.52322368  0.95829908  0.41666667  1.0
  Ti  Ti1008  1  0.62322368  0.08329908  0.41666667  1.0
  Ti  Ti1009  1  0.62322368  0.20829908  0.41666667  1.0
  Ti  Ti1010  1  0.62322368  0.33329908  0.41666667  1.0
  Ti  Ti1011  1  0.62322368  0.45829908  0.41666667  1.0
  Ti  Ti1012  1  0.62322368  0.58329908  0.41666667  1.0
  Ti  Ti1013  1  0.62322368  0.70829908  0.41666667  1.0
  Ti  Ti1014  1  0.62322368  0.83329908  0.41666667  1.0
  Ti  Ti1015  1  0.62322368  0.95829908  0.41666667  1.0
  Ti  Ti1016  1  0.72322368  0.08329908  0.41666667  1.0
  Ti  Ti1017  1  0.72322368  0.20829908  0.41666667  1.0
  Ti  Ti1018  1  0.72322368  0.33329908  0.41666667  1.0
  Ti  Ti1019  1  0.72322368  0.45829908  0.41666667  1.0
  Ti  Ti1020  1  0.72322368  0.58329908  0.41666667  1.0
  Ti  Ti1021  1  0.72322368  0.70829908  0.41666667  1.0
  Ti  Ti1022  1  0.72322368  0.83329908  0.41666667  1.0
  Ti  Ti1023  1  0.72322368  0.95829908  0.41666667  1.0
  Ti  Ti1024  1  0.82322368  0.08329908  0.41666667  1.0
  Ti  Ti1025  1  0.82322368  0.20829908  0.41666667  1.0
  Ti  Ti1026  1  0.82322368  0.33329908  0.41666667  1.0
  Ti  Ti1027  1  0.82322368  0.45829908  0.41666667  1.0
  Ti  Ti1028  1  0.82322368  0.58329908  0.41666667  1.0
  Ti  Ti1029  1  0.82322368  0.70829908  0.41666667  1.0
  Ti  Ti1030  1  0.82322368  0.83329908  0.41666667  1.0
  Ti  Ti1031  1  0.82322368  0.95829908  0.41666667  1.0
  Ti  Ti1032  1  0.92322368  0.08329908  0.41666667  1.0
  Ti  Ti1033  1  0.92322368  0.20829908  0.41666667  1.0
  Ti  Ti1034  1  0.92322368  0.33329908  0.41666667  1.0
  Ti  Ti1035  1  0.92322368  0.45829908  0.41666667  1.0
  Ti  Ti1036  1  0.92322368  0.58329908  0.41666667  1.0
  Ti  Ti1037  1  0.92322368  0.70829908  0.41666667  1.0
  Ti  Ti1038  1  0.92322368  0.83329908  0.41666667  1.0
  Ti  Ti1039  1  0.92322368  0.95829908  0.41666667  1.0
  Ti  Ti1040  1  0.07677632  0.04170092  0.45000000  1.0
  Ti  Ti1041  1  0.07677632  0.16670092  0.45000000  1.0
  Ti  Ti1042  1  0.07677632  0.29170092  0.45000000  1.0
  Ti  Ti1043  1  0.07677632  0.41670092  0.45000000  1.0
  Ti  Ti1044  1  0.07677632  0.54170092  0.45000000  1.0
  Ti  Ti1045  1  0.07677632  0.66670092  0.45000000  1.0
  Ti  Ti1046  1  0.07677632  0.79170092  0.45000000  1.0
  Ti  Ti1047  1  0.07677632  0.91670092  0.45000000  1.0
  Ti  Ti1048  1  0.17677632  0.04170092  0.45000000  1.0
  Ti  Ti1049  1  0.17677632  0.16670092  0.45000000  1.0
  Ti  Ti1050  1  0.17677632  0.29170092  0.45000000  1.0
  Ti  Ti1051  1  0.17677632  0.41670092  0.45000000  1.0
  Ti  Ti1052  1  0.17677632  0.54170092  0.45000000  1.0
  Ti  Ti1053  1  0.17677632  0.66670092  0.45000000  1.0
  Ti  Ti1054  1  0.17677632  0.79170092  0.45000000  1.0
  Ti  Ti1055  1  0.17677632  0.91670092  0.45000000  1.0
  Ti  Ti1056  1  0.27677632  0.04170092  0.45000000  1.0
  Ti  Ti1057  1  0.27677632  0.16670092  0.45000000  1.0
  Ti  Ti1058  1  0.27677632  0.29170092  0.45000000  1.0
  Ti  Ti1059  1  0.27677632  0.41670092  0.45000000  1.0
  Ti  Ti1060  1  0.27677632  0.54170092  0.45000000  1.0
  Ti  Ti1061  1  0.27677632  0.66670092  0.45000000  1.0
  Ti  Ti1062  1  0.27677632  0.79170092  0.45000000  1.0
  Ti  Ti1063  1  0.27677632  0.91670092  0.45000000  1.0
  Ti  Ti1064  1  0.37677632  0.04170092  0.45000000  1.0
  Ti  Ti1065  1  0.37677632  0.16670092  0.45000000  1.0
  Ti  Ti1066  1  0.37677632  0.29170092  0.45000000  1.0
  Ti  Ti1067  1  0.37677632  0.41670092  0.45000000  1.0
  Ti  Ti1068  1  0.37677632  0.54170092  0.45000000  1.0
  Ti  Ti1069  1  0.37677632  0.66670092  0.45000000  1.0
  Ti  Ti1070  1  0.37677632  0.79170092  0.45000000  1.0
  Ti  Ti1071  1  0.37677632  0.91670092  0.45000000  1.0
  Ti  Ti1072  1  0.47677632  0.04170092  0.45000000  1.0
  Ti  Ti1073  1  0.47677632  0.16670092  0.45000000  1.0
  Ti  Ti1074  1  0.47677632  0.29170092  0.45000000  1.0
  Ti  Ti1075  1  0.47677632  0.41670092  0.45000000  1.0
  Ti  Ti1076  1  0.47677632  0.54170092  0.45000000  1.0
  Ti  Ti1077  1  0.47677632  0.66670092  0.45000000  1.0
  Ti  Ti1078  1  0.47677632  0.79170092  0.45000000  1.0
  Ti  Ti1079  1  0.47677632  0.91670092  0.45000000  1.0
  Ti  Ti1080  1  0.57677632  0.04170092  0.45000000  1.0
  Ti  Ti1081  1  0.57677632  0.16670092  0.45000000  1.0
  Ti  Ti1082  1  0.57677632  0.29170092  0.45000000  1.0
  Ti  Ti1083  1  0.57677632  0.41670092  0.45000000  1.0
  Ti  Ti1084  1  0.57677632  0.54170092  0.45000000  1.0
  Ti  Ti1085  1  0.57677632  0.66670092  0.45000000  1.0
  Ti  Ti1086  1  0.57677632  0.79170092  0.45000000  1.0
  Ti  Ti1087  1  0.57677632  0.91670092  0.45000000  1.0
  Ti  Ti1088  1  0.67677632  0.04170092  0.45000000  1.0
  Ti  Ti1089  1  0.67677632  0.16670092  0.45000000  1.0
  Ti  Ti1090  1  0.67677632  0.29170092  0.45000000  1.0
  Ti  Ti1091  1  0.67677632  0.41670092  0.45000000  1.0
  Ti  Ti1092  1  0.67677632  0.54170092  0.45000000  1.0
  Ti  Ti1093  1  0.67677632  0.66670092  0.45000000  1.0
  Ti  Ti1094  1  0.67677632  0.79170092  0.45000000  1.0
  Ti  Ti1095  1  0.67677632  0.91670092  0.45000000  1.0
  Ti  Ti1096  1  0.77677632  0.04170092  0.45000000  1.0
  Ti  Ti1097  1  0.77677632  0.16670092  0.45000000  1.0
  Ti  Ti1098  1  0.77677632  0.29170092  0.45000000  1.0
  Ti  Ti1099  1  0.77677632  0.41670092  0.45000000  1.0
  Ti  Ti1100  1  0.77677632  0.54170092  0.45000000  1.0
  Ti  Ti1101  1  0.77677632  0.66670092  0.45000000  1.0
  Ti  Ti1102  1  0.77677632  0.79170092  0.45000000  1.0
  Ti  Ti1103  1  0.77677632  0.91670092  0.45000000  1.0
  Ti  Ti1104  1  0.87677632  0.04170092  0.45000000  1.0
  Ti  Ti1105  1  0.87677632  0.16670092  0.45000000  1.0
  Ti  Ti1106  1  0.87677632  0.29170092  0.45000000  1.0
  Ti  Ti1107  1  0.87677632  0.41670092  0.45000000  1.0
  Ti  Ti1108  1  0.87677632  0.54170092  0.45000000  1.0
  Ti  Ti1109  1  0.87677632  0.66670092  0.45000000  1.0
  Ti  Ti1110  1  0.87677632  0.79170092  0.45000000  1.0
  Ti  Ti1111  1  0.87677632  0.91670092  0.45000000  1.0
  Ti  Ti1112  1  0.97677632  0.04170092  0.45000000  1.0
  Ti  Ti1113  1  0.97677632  0.16670092  0.45000000  1.0
  Ti  Ti1114  1  0.97677632  0.29170092  0.45000000  1.0
  Ti  Ti1115  1  0.97677632  0.41670092  0.45000000  1.0
  Ti  Ti1116  1  0.97677632  0.54170092  0.45000000  1.0
  Ti  Ti1117  1  0.97677632  0.66670092  0.45000000  1.0
  Ti  Ti1118  1  0.97677632  0.79170092  0.45000000  1.0
  Ti  Ti1119  1  0.97677632  0.91670092  0.45000000  1.0
  Ti  Ti1120  1  0.07322368  0.10420092  0.41666667  1.0
  Ti  Ti1121  1  0.07322368  0.22920092  0.41666667  1.0
  Ti  Ti1122  1  0.07322368  0.35420092  0.41666667  1.0
  Ti  Ti1123  1  0.07322368  0.47920092  0.41666667  1.0
  Ti  Ti1124  1  0.07322368  0.60420092  0.41666667  1.0
  Ti  Ti1125  1  0.07322368  0.72920092  0.41666667  1.0
  Ti  Ti1126  1  0.07322368  0.85420092  0.41666667  1.0
  Ti  Ti1127  1  0.07322368  0.97920092  0.41666667  1.0
  Ti  Ti1128  1  0.17322368  0.10420092  0.41666667  1.0
  Ti  Ti1129  1  0.17322368  0.22920092  0.41666667  1.0
  Ti  Ti1130  1  0.17322368  0.35420092  0.41666667  1.0
  Ti  Ti1131  1  0.17322368  0.47920092  0.41666667  1.0
  Ti  Ti1132  1  0.17322368  0.60420092  0.41666667  1.0
  Ti  Ti1133  1  0.17322368  0.72920092  0.41666667  1.0
  Ti  Ti1134  1  0.17322368  0.85420092  0.41666667  1.0
  Ti  Ti1135  1  0.17322368  0.97920092  0.41666667  1.0
  Ti  Ti1136  1  0.27322368  0.10420092  0.41666667  1.0
  Ti  Ti1137  1  0.27322368  0.22920092  0.41666667  1.0
  Ti  Ti1138  1  0.27322368  0.35420092  0.41666667  1.0
  Ti  Ti1139  1  0.27322368  0.47920092  0.41666667  1.0
  Ti  Ti1140  1  0.27322368  0.60420092  0.41666667  1.0
  Ti  Ti1141  1  0.27322368  0.72920092  0.41666667  1.0
  Ti  Ti1142  1  0.27322368  0.85420092  0.41666667  1.0
  Ti  Ti1143  1  0.27322368  0.97920092  0.41666667  1.0
  Ti  Ti1144  1  0.37322368  0.10420092  0.41666667  1.0
  Ti  Ti1145  1  0.37322368  0.22920092  0.41666667  1.0
  Ti  Ti1146  1  0.37322368  0.35420092  0.41666667  1.0
  Ti  Ti1147  1  0.37322368  0.47920092  0.41666667  1.0
  Ti  Ti1148  1  0.37322368  0.60420092  0.41666667  1.0
  Ti  Ti1149  1  0.37322368  0.72920092  0.41666667  1.0
  Ti  Ti1150  1  0.37322368  0.85420092  0.41666667  1.0
  Ti  Ti1151  1  0.37322368  0.97920092  0.41666667  1.0
  Ti  Ti1152  1  0.47322368  0.10420092  0.41666667  1.0
  Ti  Ti1153  1  0.47322368  0.22920092  0.41666667  1.0
  Ti  Ti1154  1  0.47322368  0.35420092  0.41666667  1.0
  Ti  Ti1155  1  0.47322368  0.47920092  0.41666667  1.0
  Ti  Ti1156  1  0.47322368  0.60420092  0.41666667  1.0
  Ti  Ti1157  1  0.47322368  0.72920092  0.41666667  1.0
  Ti  Ti1158  1  0.47322368  0.85420092  0.41666667  1.0
  Ti  Ti1159  1  0.47322368  0.97920092  0.41666667  1.0
  Ti  Ti1160  1  0.57322368  0.10420092  0.41666667  1.0
  Ti  Ti1161  1  0.57322368  0.22920092  0.41666667  1.0
  Ti  Ti1162  1  0.57322368  0.35420092  0.41666667  1.0
  Ti  Ti1163  1  0.57322368  0.47920092  0.41666667  1.0
  Ti  Ti1164  1  0.57322368  0.60420092  0.41666667  1.0
  Ti  Ti1165  1  0.57322368  0.72920092  0.41666667  1.0
  Ti  Ti1166  1  0.57322368  0.85420092  0.41666667  1.0
  Ti  Ti1167  1  0.57322368  0.97920092  0.41666667  1.0
  Ti  Ti1168  1  0.67322368  0.10420092  0.41666667  1.0
  Ti  Ti1169  1  0.67322368  0.22920092  0.41666667  1.0
  Ti  Ti1170  1  0.67322368  0.35420092  0.41666667  1.0
  Ti  Ti1171  1  0.67322368  0.47920092  0.41666667  1.0
  Ti  Ti1172  1  0.67322368  0.60420092  0.41666667  1.0
  Ti  Ti1173  1  0.67322368  0.72920092  0.41666667  1.0
  Ti  Ti1174  1  0.67322368  0.85420092  0.41666667  1.0
  Ti  Ti1175  1  0.67322368  0.97920092  0.41666667  1.0
  Ti  Ti1176  1  0.77322368  0.10420092  0.41666667  1.0
  Ti  Ti1177  1  0.77322368  0.22920092  0.41666667  1.0
  Ti  Ti1178  1  0.77322368  0.35420092  0.41666667  1.0
  Ti  Ti1179  1  0.77322368  0.47920092  0.41666667  1.0
  Ti  Ti1180  1  0.77322368  0.60420092  0.41666667  1.0
  Ti  Ti1181  1  0.77322368  0.72920092  0.41666667  1.0
  Ti  Ti1182  1  0.77322368  0.85420092  0.41666667  1.0
  Ti  Ti1183  1  0.77322368  0.97920092  0.41666667  1.0
  Ti  Ti1184  1  0.87322368  0.10420092  0.41666667  1.0
  Ti  Ti1185  1  0.87322368  0.22920092  0.41666667  1.0
  Ti  Ti1186  1  0.87322368  0.35420092  0.41666667  1.0
  Ti  Ti1187  1  0.87322368  0.47920092  0.41666667  1.0
  Ti  Ti1188  1  0.87322368  0.60420092  0.41666667  1.0
  Ti  Ti1189  1  0.87322368  0.72920092  0.41666667  1.0
  Ti  Ti1190  1  0.87322368  0.85420092  0.41666667  1.0
  Ti  Ti1191  1  0.87322368  0.97920092  0.41666667  1.0
  Ti  Ti1192  1  0.97322368  0.10420092  0.41666667  1.0
  Ti  Ti1193  1  0.97322368  0.22920092  0.41666667  1.0
  Ti  Ti1194  1  0.97322368  0.35420092  0.41666667  1.0
  Ti  Ti1195  1  0.97322368  0.47920092  0.41666667  1.0
  Ti  Ti1196  1  0.97322368  0.60420092  0.41666667  1.0
  Ti  Ti1197  1  0.97322368  0.72920092  0.41666667  1.0
  Ti  Ti1198  1  0.97322368  0.85420092  0.41666667  1.0
  Ti  Ti1199  1  0.97322368  0.97920092  0.41666667  1.0
  Ti  Ti1200  1  0.02677632  0.02079908  0.45000000  1.0
  Ti  Ti1201  1  0.02677632  0.14579908  0.45000000  1.0
  Ti  Ti1202  1  0.02677632  0.27079908  0.45000000  1.0
  Ti  Ti1203  1  0.02677632  0.39579908  0.45000000  1.0
  Ti  Ti1204  1  0.02677632  0.52079908  0.45000000  1.0
  Ti  Ti1205  1  0.02677632  0.64579908  0.45000000  1.0
  Ti  Ti1206  1  0.02677632  0.77079908  0.45000000  1.0
  Ti  Ti1207  1  0.02677632  0.89579908  0.45000000  1.0
  Ti  Ti1208  1  0.12677632  0.02079908  0.45000000  1.0
  Ti  Ti1209  1  0.12677632  0.14579908  0.45000000  1.0
  Ti  Ti1210  1  0.12677632  0.27079908  0.45000000  1.0
  Ti  Ti1211  1  0.12677632  0.39579908  0.45000000  1.0
  Ti  Ti1212  1  0.12677632  0.52079908  0.45000000  1.0
  Ti  Ti1213  1  0.12677632  0.64579908  0.45000000  1.0
  Ti  Ti1214  1  0.12677632  0.77079908  0.45000000  1.0
  Ti  Ti1215  1  0.12677632  0.89579908  0.45000000  1.0
  Ti  Ti1216  1  0.22677632  0.02079908  0.45000000  1.0
  Ti  Ti1217  1  0.22677632  0.14579908  0.45000000  1.0
  Ti  Ti1218  1  0.22677632  0.27079908  0.45000000  1.0
  Ti  Ti1219  1  0.22677632  0.39579908  0.45000000  1.0
  Ti  Ti1220  1  0.22677632  0.52079908  0.45000000  1.0
  Ti  Ti1221  1  0.22677632  0.64579908  0.45000000  1.0
  Ti  Ti1222  1  0.22677632  0.77079908  0.45000000  1.0
  Ti  Ti1223  1  0.22677632  0.89579908  0.45000000  1.0
  Ti  Ti1224  1  0.32677632  0.02079908  0.45000000  1.0
  Ti  Ti1225  1  0.32677632  0.14579908  0.45000000  1.0
  Ti  Ti1226  1  0.32677632  0.27079908  0.45000000  1.0
  Ti  Ti1227  1  0.32677632  0.39579908  0.45000000  1.0
  Ti  Ti1228  1  0.32677632  0.52079908  0.45000000  1.0
  Ti  Ti1229  1  0.32677632  0.64579908  0.45000000  1.0
  Ti  Ti1230  1  0.32677632  0.77079908  0.45000000  1.0
  Ti  Ti1231  1  0.32677632  0.89579908  0.45000000  1.0
  Ti  Ti1232  1  0.42677632  0.02079908  0.45000000  1.0
  Ti  Ti1233  1  0.42677632  0.14579908  0.45000000  1.0
  Ti  Ti1234  1  0.42677632  0.27079908  0.45000000  1.0
  Ti  Ti1235  1  0.42677632  0.39579908  0.45000000  1.0
  Ti  Ti1236  1  0.42677632  0.52079908  0.45000000  1.0
  Ti  Ti1237  1  0.42677632  0.64579908  0.45000000  1.0
  Ti  Ti1238  1  0.42677632  0.77079908  0.45000000  1.0
  Ti  Ti1239  1  0.42677632  0.89579908  0.45000000  1.0
  Ti  Ti1240  1  0.52677632  0.02079908  0.45000000  1.0
  Ti  Ti1241  1  0.52677632  0.14579908  0.45000000  1.0
  Ti  Ti1242  1  0.52677632  0.27079908  0.45000000  1.0
  Ti  Ti1243  1  0.52677632  0.39579908  0.45000000  1.0
  Ti  Ti1244  1  0.52677632  0.52079908  0.45000000  1.0
  Ti  Ti1245  1  0.52677632  0.64579908  0.45000000  1.0
  Ti  Ti1246  1  0.52677632  0.77079908  0.45000000  1.0
  Ti  Ti1247  1  0.52677632  0.89579908  0.45000000  1.0
  Ti  Ti1248  1  0.62677632  0.02079908  0.45000000  1.0
  Ti  Ti1249  1  0.62677632  0.14579908  0.45000000  1.0
  Ti  Ti1250  1  0.62677632  0.27079908  0.45000000  1.0
  Ti  Ti1251  1  0.62677632  0.39579908  0.45000000  1.0
  Ti  Ti1252  1  0.62677632  0.52079908  0.45000000  1.0
  Ti  Ti1253  1  0.62677632  0.64579908  0.45000000  1.0
  Ti  Ti1254  1  0.62677632  0.77079908  0.45000000  1.0
  Ti  Ti1255  1  0.62677632  0.89579908  0.45000000  1.0
  Ti  Ti1256  1  0.72677632  0.02079908  0.45000000  1.0
  Ti  Ti1257  1  0.72677632  0.14579908  0.45000000  1.0
  Ti  Ti1258  1  0.72677632  0.27079908  0.45000000  1.0
  Ti  Ti1259  1  0.72677632  0.39579908  0.45000000  1.0
  Ti  Ti1260  1  0.72677632  0.52079908  0.45000000  1.0
  Ti  Ti1261  1  0.72677632  0.64579908  0.45000000  1.0
  Ti  Ti1262  1  0.72677632  0.77079908  0.45000000  1.0
  Ti  Ti1263  1  0.72677632  0.89579908  0.45000000  1.0
  Ti  Ti1264  1  0.82677632  0.02079908  0.45000000  1.0
  Ti  Ti1265  1  0.82677632  0.14579908  0.45000000  1.0
  Ti  Ti1266  1  0.82677632  0.27079908  0.45000000  1.0
  Ti  Ti1267  1  0.82677632  0.39579908  0.45000000  1.0
  Ti  Ti1268  1  0.82677632  0.52079908  0.45000000  1.0
  Ti  Ti1269  1  0.82677632  0.64579908  0.45000000  1.0
  Ti  Ti1270  1  0.82677632  0.77079908  0.45000000  1.0
  Ti  Ti1271  1  0.82677632  0.89579908  0.45000000  1.0
  Ti  Ti1272  1  0.92677632  0.02079908  0.45000000  1.0
  Ti  Ti1273  1  0.92677632  0.14579908  0.45000000  1.0
  Ti  Ti1274  1  0.92677632  0.27079908  0.45000000  1.0
  Ti  Ti1275  1  0.92677632  0.39579908  0.45000000  1.0
  Ti  Ti1276  1  0.92677632  0.52079908  0.45000000  1.0
  Ti  Ti1277  1  0.92677632  0.64579908  0.45000000  1.0
  Ti  Ti1278  1  0.92677632  0.77079908  0.45000000  1.0
  Ti  Ti1279  1  0.92677632  0.89579908  0.45000000  1.0
  Ti  Ti1280  1  0.02322368  0.08329908  0.48333333  1.0
  Ti  Ti1281  1  0.02322368  0.20829908  0.48333333  1.0
  Ti  Ti1282  1  0.02322368  0.33329908  0.48333333  1.0
  Ti  Ti1283  1  0.02322368  0.45829908  0.48333333  1.0
  Ti  Ti1284  1  0.02322368  0.58329908  0.48333333  1.0
  Ti  Ti1285  1  0.02322368  0.70829908  0.48333333  1.0
  Ti  Ti1286  1  0.02322368  0.83329908  0.48333333  1.0
  Ti  Ti1287  1  0.02322368  0.95829908  0.48333333  1.0
  Ti  Ti1288  1  0.12322368  0.08329908  0.48333333  1.0
  Ti  Ti1289  1  0.12322368  0.20829908  0.48333333  1.0
  Ti  Ti1290  1  0.12322368  0.33329908  0.48333333  1.0
  Ti  Ti1291  1  0.12322368  0.45829908  0.48333333  1.0
  Ti  Ti1292  1  0.12322368  0.58329908  0.48333333  1.0
  Ti  Ti1293  1  0.12322368  0.70829908  0.48333333  1.0
  Ti  Ti1294  1  0.12322368  0.83329908  0.48333333  1.0
  Ti  Ti1295  1  0.12322368  0.95829908  0.48333333  1.0
  Ti  Ti1296  1  0.22322368  0.08329908  0.48333333  1.0
  Ti  Ti1297  1  0.22322368  0.20829908  0.48333333  1.0
  Ti  Ti1298  1  0.22322368  0.33329908  0.48333333  1.0
  Ti  Ti1299  1  0.22322368  0.45829908  0.48333333  1.0
  Ti  Ti1300  1  0.22322368  0.58329908  0.48333333  1.0
  Ti  Ti1301  1  0.22322368  0.70829908  0.48333333  1.0
  Ti  Ti1302  1  0.22322368  0.83329908  0.48333333  1.0
  Ti  Ti1303  1  0.22322368  0.95829908  0.48333333  1.0
  Ti  Ti1304  1  0.32322368  0.08329908  0.48333333  1.0
  Ti  Ti1305  1  0.32322368  0.20829908  0.48333333  1.0
  Ti  Ti1306  1  0.32322368  0.33329908  0.48333333  1.0
  Ti  Ti1307  1  0.32322368  0.45829908  0.48333333  1.0
  Ti  Ti1308  1  0.32322368  0.58329908  0.48333333  1.0
  Ti  Ti1309  1  0.32322368  0.70829908  0.48333333  1.0
  Ti  Ti1310  1  0.32322368  0.83329908  0.48333333  1.0
  Ti  Ti1311  1  0.32322368  0.95829908  0.48333333  1.0
  Ti  Ti1312  1  0.42322368  0.08329908  0.48333333  1.0
  Ti  Ti1313  1  0.42322368  0.20829908  0.48333333  1.0
  Ti  Ti1314  1  0.42322368  0.33329908  0.48333333  1.0
  Ti  Ti1315  1  0.42322368  0.45829908  0.48333333  1.0
  Ti  Ti1316  1  0.42322368  0.58329908  0.48333333  1.0
  Ti  Ti1317  1  0.42322368  0.70829908  0.48333333  1.0
  Ti  Ti1318  1  0.42322368  0.83329908  0.48333333  1.0
  Ti  Ti1319  1  0.42322368  0.95829908  0.48333333  1.0
  Ti  Ti1320  1  0.52322368  0.08329908  0.48333333  1.0
  Ti  Ti1321  1  0.52322368  0.20829908  0.48333333  1.0
  Ti  Ti1322  1  0.52322368  0.33329908  0.48333333  1.0
  Ti  Ti1323  1  0.52322368  0.45829908  0.48333333  1.0
  Ti  Ti1324  1  0.52322368  0.58329908  0.48333333  1.0
  Ti  Ti1325  1  0.52322368  0.70829908  0.48333333  1.0
  Ti  Ti1326  1  0.52322368  0.83329908  0.48333333  1.0
  Ti  Ti1327  1  0.52322368  0.95829908  0.48333333  1.0
  Ti  Ti1328  1  0.62322368  0.08329908  0.48333333  1.0
  Ti  Ti1329  1  0.62322368  0.20829908  0.48333333  1.0
  Ti  Ti1330  1  0.62322368  0.33329908  0.48333333  1.0
  Ti  Ti1331  1  0.62322368  0.45829908  0.48333333  1.0
  Ti  Ti1332  1  0.62322368  0.58329908  0.48333333  1.0
  Ti  Ti1333  1  0.62322368  0.70829908  0.48333333  1.0
  Ti  Ti1334  1  0.62322368  0.83329908  0.48333333  1.0
  Ti  Ti1335  1  0.62322368  0.95829908  0.48333333  1.0
  Ti  Ti1336  1  0.72322368  0.08329908  0.48333333  1.0
  Ti  Ti1337  1  0.72322368  0.20829908  0.48333333  1.0
  Ti  Ti1338  1  0.72322368  0.33329908  0.48333333  1.0
  Ti  Ti1339  1  0.72322368  0.45829908  0.48333333  1.0
  Ti  Ti1340  1  0.72322368  0.58329908  0.48333333  1.0
  Ti  Ti1341  1  0.72322368  0.70829908  0.48333333  1.0
  Ti  Ti1342  1  0.72322368  0.83329908  0.48333333  1.0
  Ti  Ti1343  1  0.72322368  0.95829908  0.48333333  1.0
  Ti  Ti1344  1  0.82322368  0.08329908  0.48333333  1.0
  Ti  Ti1345  1  0.82322368  0.20829908  0.48333333  1.0
  Ti  Ti1346  1  0.82322368  0.33329908  0.48333333  1.0
  Ti  Ti1347  1  0.82322368  0.45829908  0.48333333  1.0
  Ti  Ti1348  1  0.82322368  0.58329908  0.48333333  1.0
  Ti  Ti1349  1  0.82322368  0.70829908  0.48333333  1.0
  Ti  Ti1350  1  0.82322368  0.83329908  0.48333333  1.0
  Ti  Ti1351  1  0.82322368  0.95829908  0.48333333  1.0
  Ti  Ti1352  1  0.92322368  0.08329908  0.48333333  1.0
  Ti  Ti1353  1  0.92322368  0.20829908  0.48333333  1.0
  Ti  Ti1354  1  0.92322368  0.33329908  0.48333333  1.0
  Ti  Ti1355  1  0.92322368  0.45829908  0.48333333  1.0
  Ti  Ti1356  1  0.92322368  0.58329908  0.48333333  1.0
  Ti  Ti1357  1  0.92322368  0.70829908  0.48333333  1.0
  Ti  Ti1358  1  0.92322368  0.83329908  0.48333333  1.0
  Ti  Ti1359  1  0.92322368  0.95829908  0.48333333  1.0
  Ti  Ti1360  1  0.07677632  0.04170092  0.51666667  1.0
  Ti  Ti1361  1  0.07677632  0.16670092  0.51666667  1.0
  Ti  Ti1362  1  0.07677632  0.29170092  0.51666667  1.0
  Ti  Ti1363  1  0.07677632  0.41670092  0.51666667  1.0
  Ti  Ti1364  1  0.07677632  0.54170092  0.51666667  1.0
  Ti  Ti1365  1  0.07677632  0.66670092  0.51666667  1.0
  Ti  Ti1366  1  0.07677632  0.79170092  0.51666667  1.0
  Ti  Ti1367  1  0.07677632  0.91670092  0.51666667  1.0
  Ti  Ti1368  1  0.17677632  0.04170092  0.51666667  1.0
  Ti  Ti1369  1  0.17677632  0.16670092  0.51666667  1.0
  Ti  Ti1370  1  0.17677632  0.29170092  0.51666667  1.0
  Ti  Ti1371  1  0.17677632  0.41670092  0.51666667  1.0
  Ti  Ti1372  1  0.17677632  0.54170092  0.51666667  1.0
  Ti  Ti1373  1  0.17677632  0.66670092  0.51666667  1.0
  Ti  Ti1374  1  0.17677632  0.79170092  0.51666667  1.0
  Ti  Ti1375  1  0.17677632  0.91670092  0.51666667  1.0
  Ti  Ti1376  1  0.27677632  0.04170092  0.51666667  1.0
  Ti  Ti1377  1  0.27677632  0.16670092  0.51666667  1.0
  Ti  Ti1378  1  0.27677632  0.29170092  0.51666667  1.0
  Ti  Ti1379  1  0.27677632  0.41670092  0.51666667  1.0
  Ti  Ti1380  1  0.27677632  0.54170092  0.51666667  1.0
  Ti  Ti1381  1  0.27677632  0.66670092  0.51666667  1.0
  Ti  Ti1382  1  0.27677632  0.79170092  0.51666667  1.0
  Ti  Ti1383  1  0.27677632  0.91670092  0.51666667  1.0
  Ti  Ti1384  1  0.37677632  0.04170092  0.51666667  1.0
  Ti  Ti1385  1  0.37677632  0.16670092  0.51666667  1.0
  Ti  Ti1386  1  0.37677632  0.29170092  0.51666667  1.0
  Ti  Ti1387  1  0.37677632  0.41670092  0.51666667  1.0
  Ti  Ti1388  1  0.37677632  0.54170092  0.51666667  1.0
  Ti  Ti1389  1  0.37677632  0.66670092  0.51666667  1.0
  Ti  Ti1390  1  0.37677632  0.79170092  0.51666667  1.0
  Ti  Ti1391  1  0.37677632  0.91670092  0.51666667  1.0
  Ti  Ti1392  1  0.47677632  0.04170092  0.51666667  1.0
  Ti  Ti1393  1  0.47677632  0.16670092  0.51666667  1.0
  Ti  Ti1394  1  0.47677632  0.29170092  0.51666667  1.0
  Ti  Ti1395  1  0.47677632  0.41670092  0.51666667  1.0
  Ti  Ti1396  1  0.47677632  0.54170092  0.51666667  1.0
  Ti  Ti1397  1  0.47677632  0.66670092  0.51666667  1.0
  Ti  Ti1398  1  0.47677632  0.79170092  0.51666667  1.0
  Ti  Ti1399  1  0.47677632  0.91670092  0.51666667  1.0
  Ti  Ti1400  1  0.57677632  0.04170092  0.51666667  1.0
  Ti  Ti1401  1  0.57677632  0.16670092  0.51666667  1.0
  Ti  Ti1402  1  0.57677632  0.29170092  0.51666667  1.0
  Ti  Ti1403  1  0.57677632  0.41670092  0.51666667  1.0
  Ti  Ti1404  1  0.57677632  0.54170092  0.51666667  1.0
  Ti  Ti1405  1  0.57677632  0.66670092  0.51666667  1.0
  Ti  Ti1406  1  0.57677632  0.79170092  0.51666667  1.0
  Ti  Ti1407  1  0.57677632  0.91670092  0.51666667  1.0
  Ti  Ti1408  1  0.67677632  0.04170092  0.51666667  1.0
  Ti  Ti1409  1  0.67677632  0.16670092  0.51666667  1.0
  Ti  Ti1410  1  0.67677632  0.29170092  0.51666667  1.0
  Ti  Ti1411  1  0.67677632  0.41670092  0.51666667  1.0
  Ti  Ti1412  1  0.67677632  0.54170092  0.51666667  1.0
  Ti  Ti1413  1  0.67677632  0.66670092  0.51666667  1.0
  Ti  Ti1414  1  0.67677632  0.79170092  0.51666667  1.0
  Ti  Ti1415  1  0.67677632  0.91670092  0.51666667  1.0
  Ti  Ti1416  1  0.77677632  0.04170092  0.51666667  1.0
  Ti  Ti1417  1  0.77677632  0.16670092  0.51666667  1.0
  Ti  Ti1418  1  0.77677632  0.29170092  0.51666667  1.0
  Ti  Ti1419  1  0.77677632  0.41670092  0.51666667  1.0
  Ti  Ti1420  1  0.77677632  0.54170092  0.51666667  1.0
  Ti  Ti1421  1  0.77677632  0.66670092  0.51666667  1.0
  Ti  Ti1422  1  0.77677632  0.79170092  0.51666667  1.0
  Ti  Ti1423  1  0.77677632  0.91670092  0.51666667  1.0
  Ti  Ti1424  1  0.87677632  0.04170092  0.51666667  1.0
  Ti  Ti1425  1  0.87677632  0.16670092  0.51666667  1.0
  Ti  Ti1426  1  0.87677632  0.29170092  0.51666667  1.0
  Ti  Ti1427  1  0.87677632  0.41670092  0.51666667  1.0
  Ti  Ti1428  1  0.87677632  0.54170092  0.51666667  1.0
  Ti  Ti1429  1  0.87677632  0.66670092  0.51666667  1.0
  Ti  Ti1430  1  0.87677632  0.79170092  0.51666667  1.0
  Ti  Ti1431  1  0.87677632  0.91670092  0.51666667  1.0
  Ti  Ti1432  1  0.97677632  0.04170092  0.51666667  1.0
  Ti  Ti1433  1  0.97677632  0.16670092  0.51666667  1.0
  Ti  Ti1434  1  0.97677632  0.29170092  0.51666667  1.0
  Ti  Ti1435  1  0.97677632  0.41670092  0.51666667  1.0
  Ti  Ti1436  1  0.97677632  0.54170092  0.51666667  1.0
  Ti  Ti1437  1  0.97677632  0.66670092  0.51666667  1.0
  Ti  Ti1438  1  0.97677632  0.79170092  0.51666667  1.0
  Ti  Ti1439  1  0.97677632  0.91670092  0.51666667  1.0
  Ti  Ti1440  1  0.07322368  0.10420092  0.48333333  1.0
  Ti  Ti1441  1  0.07322368  0.22920092  0.48333333  1.0
  Ti  Ti1442  1  0.07322368  0.35420092  0.48333333  1.0
  Ti  Ti1443  1  0.07322368  0.47920092  0.48333333  1.0
  Ti  Ti1444  1  0.07322368  0.60420092  0.48333333  1.0
  Ti  Ti1445  1  0.07322368  0.72920092  0.48333333  1.0
  Ti  Ti1446  1  0.07322368  0.85420092  0.48333333  1.0
  Ti  Ti1447  1  0.07322368  0.97920092  0.48333333  1.0
  Ti  Ti1448  1  0.17322368  0.10420092  0.48333333  1.0
  Ti  Ti1449  1  0.17322368  0.22920092  0.48333333  1.0
  Ti  Ti1450  1  0.17322368  0.35420092  0.48333333  1.0
  Ti  Ti1451  1  0.17322368  0.47920092  0.48333333  1.0
  Ti  Ti1452  1  0.17322368  0.60420092  0.48333333  1.0
  Ti  Ti1453  1  0.17322368  0.72920092  0.48333333  1.0
  Ti  Ti1454  1  0.17322368  0.85420092  0.48333333  1.0
  Ti  Ti1455  1  0.17322368  0.97920092  0.48333333  1.0
  Ti  Ti1456  1  0.27322368  0.10420092  0.48333333  1.0
  Ti  Ti1457  1  0.27322368  0.22920092  0.48333333  1.0
  Ti  Ti1458  1  0.27322368  0.35420092  0.48333333  1.0
  Ti  Ti1459  1  0.27322368  0.47920092  0.48333333  1.0
  Ti  Ti1460  1  0.27322368  0.60420092  0.48333333  1.0
  Ti  Ti1461  1  0.27322368  0.72920092  0.48333333  1.0
  Ti  Ti1462  1  0.27322368  0.85420092  0.48333333  1.0
  Ti  Ti1463  1  0.27322368  0.97920092  0.48333333  1.0
  Ti  Ti1464  1  0.37322368  0.10420092  0.48333333  1.0
  Ti  Ti1465  1  0.37322368  0.22920092  0.48333333  1.0
  Ti  Ti1466  1  0.37322368  0.35420092  0.48333333  1.0
  Ti  Ti1467  1  0.37322368  0.47920092  0.48333333  1.0
  Ti  Ti1468  1  0.37322368  0.60420092  0.48333333  1.0
  Ti  Ti1469  1  0.37322368  0.72920092  0.48333333  1.0
  Ti  Ti1470  1  0.37322368  0.85420092  0.48333333  1.0
  Ti  Ti1471  1  0.37322368  0.97920092  0.48333333  1.0
  Ti  Ti1472  1  0.47322368  0.10420092  0.48333333  1.0
  Ti  Ti1473  1  0.47322368  0.22920092  0.48333333  1.0
  Ti  Ti1474  1  0.47322368  0.35420092  0.48333333  1.0
  Ti  Ti1475  1  0.47322368  0.47920092  0.48333333  1.0
  Ti  Ti1476  1  0.47322368  0.60420092  0.48333333  1.0
  Ti  Ti1477  1  0.47322368  0.72920092  0.48333333  1.0
  Ti  Ti1478  1  0.47322368  0.85420092  0.48333333  1.0
  Ti  Ti1479  1  0.47322368  0.97920092  0.48333333  1.0
  Ti  Ti1480  1  0.57322368  0.10420092  0.48333333  1.0
  Ti  Ti1481  1  0.57322368  0.22920092  0.48333333  1.0
  Ti  Ti1482  1  0.57322368  0.35420092  0.48333333  1.0
  Ti  Ti1483  1  0.57322368  0.47920092  0.48333333  1.0
  Ti  Ti1484  1  0.57322368  0.60420092  0.48333333  1.0
  Ti  Ti1485  1  0.57322368  0.72920092  0.48333333  1.0
  Ti  Ti1486  1  0.57322368  0.85420092  0.48333333  1.0
  Ti  Ti1487  1  0.57322368  0.97920092  0.48333333  1.0
  Ti  Ti1488  1  0.67322368  0.10420092  0.48333333  1.0
  Ti  Ti1489  1  0.67322368  0.22920092  0.48333333  1.0
  Ti  Ti1490  1  0.67322368  0.35420092  0.48333333  1.0
  Ti  Ti1491  1  0.67322368  0.47920092  0.48333333  1.0
  Ti  Ti1492  1  0.67322368  0.60420092  0.48333333  1.0
  Ti  Ti1493  1  0.67322368  0.72920092  0.48333333  1.0
  Ti  Ti1494  1  0.67322368  0.85420092  0.48333333  1.0
  Ti  Ti1495  1  0.67322368  0.97920092  0.48333333  1.0
  Ti  Ti1496  1  0.77322368  0.10420092  0.48333333  1.0
  Ti  Ti1497  1  0.77322368  0.22920092  0.48333333  1.0
  Ti  Ti1498  1  0.77322368  0.35420092  0.48333333  1.0
  Ti  Ti1499  1  0.77322368  0.47920092  0.48333333  1.0
  Ti  Ti1500  1  0.77322368  0.60420092  0.48333333  1.0
  Ti  Ti1501  1  0.77322368  0.72920092  0.48333333  1.0
  Ti  Ti1502  1  0.77322368  0.85420092  0.48333333  1.0
  Ti  Ti1503  1  0.77322368  0.97920092  0.48333333  1.0
  Ti  Ti1504  1  0.87322368  0.10420092  0.48333333  1.0
  Ti  Ti1505  1  0.87322368  0.22920092  0.48333333  1.0
  Ti  Ti1506  1  0.87322368  0.35420092  0.48333333  1.0
  Ti  Ti1507  1  0.87322368  0.47920092  0.48333333  1.0
  Ti  Ti1508  1  0.87322368  0.60420092  0.48333333  1.0
  Ti  Ti1509  1  0.87322368  0.72920092  0.48333333  1.0
  Ti  Ti1510  1  0.87322368  0.85420092  0.48333333  1.0
  Ti  Ti1511  1  0.87322368  0.97920092  0.48333333  1.0
  Ti  Ti1512  1  0.97322368  0.10420092  0.48333333  1.0
  Ti  Ti1513  1  0.97322368  0.22920092  0.48333333  1.0
  Ti  Ti1514  1  0.97322368  0.35420092  0.48333333  1.0
  Ti  Ti1515  1  0.97322368  0.47920092  0.48333333  1.0
  Ti  Ti1516  1  0.97322368  0.60420092  0.48333333  1.0
  Ti  Ti1517  1  0.97322368  0.72920092  0.48333333  1.0
  Ti  Ti1518  1  0.97322368  0.85420092  0.48333333  1.0
  Ti  Ti1519  1  0.97322368  0.97920092  0.48333333  1.0
  Ti  Ti1520  1  0.02677632  0.02079908  0.51666667  1.0
  Ti  Ti1521  1  0.02677632  0.14579908  0.51666667  1.0
  Ti  Ti1522  1  0.02677632  0.27079908  0.51666667  1.0
  Ti  Ti1523  1  0.02677632  0.39579908  0.51666667  1.0
  Ti  Ti1524  1  0.02677632  0.52079908  0.51666667  1.0
  Ti  Ti1525  1  0.02677632  0.64579908  0.51666667  1.0
  Ti  Ti1526  1  0.02677632  0.77079908  0.51666667  1.0
  Ti  Ti1527  1  0.02677632  0.89579908  0.51666667  1.0
  Ti  Ti1528  1  0.12677632  0.02079908  0.51666667  1.0
  Ti  Ti1529  1  0.12677632  0.14579908  0.51666667  1.0
  Ti  Ti1530  1  0.12677632  0.27079908  0.51666667  1.0
  Ti  Ti1531  1  0.12677632  0.39579908  0.51666667  1.0
  Ti  Ti1532  1  0.12677632  0.52079908  0.51666667  1.0
  Ti  Ti1533  1  0.12677632  0.64579908  0.51666667  1.0
  Ti  Ti1534  1  0.12677632  0.77079908  0.51666667  1.0
  Ti  Ti1535  1  0.12677632  0.89579908  0.51666667  1.0
  Ti  Ti1536  1  0.22677632  0.02079908  0.51666667  1.0
  Ti  Ti1537  1  0.22677632  0.14579908  0.51666667  1.0
  Ti  Ti1538  1  0.22677632  0.27079908  0.51666667  1.0
  Ti  Ti1539  1  0.22677632  0.39579908  0.51666667  1.0
  Ti  Ti1540  1  0.22677632  0.52079908  0.51666667  1.0
  Ti  Ti1541  1  0.22677632  0.64579908  0.51666667  1.0
  Ti  Ti1542  1  0.22677632  0.77079908  0.51666667  1.0
  Ti  Ti1543  1  0.22677632  0.89579908  0.51666667  1.0
  Ti  Ti1544  1  0.32677632  0.02079908  0.51666667  1.0
  Ti  Ti1545  1  0.32677632  0.14579908  0.51666667  1.0
  Ti  Ti1546  1  0.32677632  0.27079908  0.51666667  1.0
  Ti  Ti1547  1  0.32677632  0.39579908  0.51666667  1.0
  Ti  Ti1548  1  0.32677632  0.52079908  0.51666667  1.0
  Ti  Ti1549  1  0.32677632  0.64579908  0.51666667  1.0
  Ti  Ti1550  1  0.32677632  0.77079908  0.51666667  1.0
  Ti  Ti1551  1  0.32677632  0.89579908  0.51666667  1.0
  Ti  Ti1552  1  0.42677632  0.02079908  0.51666667  1.0
  Ti  Ti1553  1  0.42677632  0.14579908  0.51666667  1.0
  Ti  Ti1554  1  0.42677632  0.27079908  0.51666667  1.0
  Ti  Ti1555  1  0.42677632  0.39579908  0.51666667  1.0
  Ti  Ti1556  1  0.42677632  0.52079908  0.51666667  1.0
  Ti  Ti1557  1  0.42677632  0.64579908  0.51666667  1.0
  Ti  Ti1558  1  0.42677632  0.77079908  0.51666667  1.0
  Ti  Ti1559  1  0.42677632  0.89579908  0.51666667  1.0
  Ti  Ti1560  1  0.52677632  0.02079908  0.51666667  1.0
  Ti  Ti1561  1  0.52677632  0.14579908  0.51666667  1.0
  Ti  Ti1562  1  0.52677632  0.27079908  0.51666667  1.0
  Ti  Ti1563  1  0.52677632  0.39579908  0.51666667  1.0
  Ti  Ti1564  1  0.52677632  0.52079908  0.51666667  1.0
  Ti  Ti1565  1  0.52677632  0.64579908  0.51666667  1.0
  Ti  Ti1566  1  0.52677632  0.77079908  0.51666667  1.0
  Ti  Ti1567  1  0.52677632  0.89579908  0.51666667  1.0
  Ti  Ti1568  1  0.62677632  0.02079908  0.51666667  1.0
  Ti  Ti1569  1  0.62677632  0.14579908  0.51666667  1.0
  Ti  Ti1570  1  0.62677632  0.27079908  0.51666667  1.0
  Ti  Ti1571  1  0.62677632  0.39579908  0.51666667  1.0
  Ti  Ti1572  1  0.62677632  0.52079908  0.51666667  1.0
  Ti  Ti1573  1  0.62677632  0.64579908  0.51666667  1.0
  Ti  Ti1574  1  0.62677632  0.77079908  0.51666667  1.0
  Ti  Ti1575  1  0.62677632  0.89579908  0.51666667  1.0
  Ti  Ti1576  1  0.72677632  0.02079908  0.51666667  1.0
  Ti  Ti1577  1  0.72677632  0.14579908  0.51666667  1.0
  Ti  Ti1578  1  0.72677632  0.27079908  0.51666667  1.0
  Ti  Ti1579  1  0.72677632  0.39579908  0.51666667  1.0
  Ti  Ti1580  1  0.72677632  0.52079908  0.51666667  1.0
  Ti  Ti1581  1  0.72677632  0.64579908  0.51666667  1.0
  Ti  Ti1582  1  0.72677632  0.77079908  0.51666667  1.0
  Ti  Ti1583  1  0.72677632  0.89579908  0.51666667  1.0
  Ti  Ti1584  1  0.82677632  0.02079908  0.51666667  1.0
  Ti  Ti1585  1  0.82677632  0.14579908  0.51666667  1.0
  Ti  Ti1586  1  0.82677632  0.27079908  0.51666667  1.0
  Ti  Ti1587  1  0.82677632  0.39579908  0.51666667  1.0
  Ti  Ti1588  1  0.82677632  0.52079908  0.51666667  1.0
  Ti  Ti1589  1  0.82677632  0.64579908  0.51666667  1.0
  Ti  Ti1590  1  0.82677632  0.77079908  0.51666667  1.0
  Ti  Ti1591  1  0.82677632  0.89579908  0.51666667  1.0
  Ti  Ti1592  1  0.92677632  0.02079908  0.51666667  1.0
  Ti  Ti1593  1  0.92677632  0.14579908  0.51666667  1.0
  Ti  Ti1594  1  0.92677632  0.27079908  0.51666667  1.0
  Ti  Ti1595  1  0.92677632  0.39579908  0.51666667  1.0
  Ti  Ti1596  1  0.92677632  0.52079908  0.51666667  1.0
  Ti  Ti1597  1  0.92677632  0.64579908  0.51666667  1.0
  Ti  Ti1598  1  0.92677632  0.77079908  0.51666667  1.0
  Ti  Ti1599  1  0.92677632  0.89579908  0.51666667  1.0
  Ti  Ti1600  1  0.02322368  0.08329908  0.55000000  1.0
  Ti  Ti1601  1  0.02322368  0.20829908  0.55000000  1.0
  Ti  Ti1602  1  0.02322368  0.33329908  0.55000000  1.0
  Ti  Ti1603  1  0.02322368  0.45829908  0.55000000  1.0
  Ti  Ti1604  1  0.02322368  0.58329908  0.55000000  1.0
  Ti  Ti1605  1  0.02322368  0.70829908  0.55000000  1.0
  Ti  Ti1606  1  0.02322368  0.83329908  0.55000000  1.0
  Ti  Ti1607  1  0.02322368  0.95829908  0.55000000  1.0
  Ti  Ti1608  1  0.12322368  0.08329908  0.55000000  1.0
  Ti  Ti1609  1  0.12322368  0.20829908  0.55000000  1.0
  Ti  Ti1610  1  0.12322368  0.33329908  0.55000000  1.0
  Ti  Ti1611  1  0.12322368  0.45829908  0.55000000  1.0
  Ti  Ti1612  1  0.12322368  0.58329908  0.55000000  1.0
  Ti  Ti1613  1  0.12322368  0.70829908  0.55000000  1.0
  Ti  Ti1614  1  0.12322368  0.83329908  0.55000000  1.0
  Ti  Ti1615  1  0.12322368  0.95829908  0.55000000  1.0
  Ti  Ti1616  1  0.22322368  0.08329908  0.55000000  1.0
  Ti  Ti1617  1  0.22322368  0.20829908  0.55000000  1.0
  Ti  Ti1618  1  0.22322368  0.33329908  0.55000000  1.0
  Ti  Ti1619  1  0.22322368  0.45829908  0.55000000  1.0
  Ti  Ti1620  1  0.22322368  0.58329908  0.55000000  1.0
  Ti  Ti1621  1  0.22322368  0.70829908  0.55000000  1.0
  Ti  Ti1622  1  0.22322368  0.83329908  0.55000000  1.0
  Ti  Ti1623  1  0.22322368  0.95829908  0.55000000  1.0
  Ti  Ti1624  1  0.32322368  0.08329908  0.55000000  1.0
  Ti  Ti1625  1  0.32322368  0.20829908  0.55000000  1.0
  Ti  Ti1626  1  0.32322368  0.33329908  0.55000000  1.0
  Ti  Ti1627  1  0.32322368  0.45829908  0.55000000  1.0
  Ti  Ti1628  1  0.32322368  0.58329908  0.55000000  1.0
  Ti  Ti1629  1  0.32322368  0.70829908  0.55000000  1.0
  Ti  Ti1630  1  0.32322368  0.83329908  0.55000000  1.0
  Ti  Ti1631  1  0.32322368  0.95829908  0.55000000  1.0
  Ti  Ti1632  1  0.42322368  0.08329908  0.55000000  1.0
  Ti  Ti1633  1  0.42322368  0.20829908  0.55000000  1.0
  Ti  Ti1634  1  0.42322368  0.33329908  0.55000000  1.0
  Ti  Ti1635  1  0.42322368  0.45829908  0.55000000  1.0
  Ti  Ti1636  1  0.42322368  0.58329908  0.55000000  1.0
  Ti  Ti1637  1  0.42322368  0.70829908  0.55000000  1.0
  Ti  Ti1638  1  0.42322368  0.83329908  0.55000000  1.0
  Ti  Ti1639  1  0.42322368  0.95829908  0.55000000  1.0
  Ti  Ti1640  1  0.52322368  0.08329908  0.55000000  1.0
  Ti  Ti1641  1  0.52322368  0.20829908  0.55000000  1.0
  Ti  Ti1642  1  0.52322368  0.33329908  0.55000000  1.0
  Ti  Ti1643  1  0.52322368  0.45829908  0.55000000  1.0
  Ti  Ti1644  1  0.52322368  0.58329908  0.55000000  1.0
  Ti  Ti1645  1  0.52322368  0.70829908  0.55000000  1.0
  Ti  Ti1646  1  0.52322368  0.83329908  0.55000000  1.0
  Ti  Ti1647  1  0.52322368  0.95829908  0.55000000  1.0
  Ti  Ti1648  1  0.62322368  0.08329908  0.55000000  1.0
  Ti  Ti1649  1  0.62322368  0.20829908  0.55000000  1.0
  Ti  Ti1650  1  0.62322368  0.33329908  0.55000000  1.0
  Ti  Ti1651  1  0.62322368  0.45829908  0.55000000  1.0
  Ti  Ti1652  1  0.62322368  0.58329908  0.55000000  1.0
  Ti  Ti1653  1  0.62322368  0.70829908  0.55000000  1.0
  Ti  Ti1654  1  0.62322368  0.83329908  0.55000000  1.0
  Ti  Ti1655  1  0.62322368  0.95829908  0.55000000  1.0
  Ti  Ti1656  1  0.72322368  0.08329908  0.55000000  1.0
  Ti  Ti1657  1  0.72322368  0.20829908  0.55000000  1.0
  Ti  Ti1658  1  0.72322368  0.33329908  0.55000000  1.0
  Ti  Ti1659  1  0.72322368  0.45829908  0.55000000  1.0
  Ti  Ti1660  1  0.72322368  0.58329908  0.55000000  1.0
  Ti  Ti1661  1  0.72322368  0.70829908  0.55000000  1.0
  Ti  Ti1662  1  0.72322368  0.83329908  0.55000000  1.0
  Ti  Ti1663  1  0.72322368  0.95829908  0.55000000  1.0
  Ti  Ti1664  1  0.82322368  0.08329908  0.55000000  1.0
  Ti  Ti1665  1  0.82322368  0.20829908  0.55000000  1.0
  Ti  Ti1666  1  0.82322368  0.33329908  0.55000000  1.0
  Ti  Ti1667  1  0.82322368  0.45829908  0.55000000  1.0
  Ti  Ti1668  1  0.82322368  0.58329908  0.55000000  1.0
  Ti  Ti1669  1  0.82322368  0.70829908  0.55000000  1.0
  Ti  Ti1670  1  0.82322368  0.83329908  0.55000000  1.0
  Ti  Ti1671  1  0.82322368  0.95829908  0.55000000  1.0
  Ti  Ti1672  1  0.92322368  0.08329908  0.55000000  1.0
  Ti  Ti1673  1  0.92322368  0.20829908  0.55000000  1.0
  Ti  Ti1674  1  0.92322368  0.33329908  0.55000000  1.0
  Ti  Ti1675  1  0.92322368  0.45829908  0.55000000  1.0
  Ti  Ti1676  1  0.92322368  0.58329908  0.55000000  1.0
  Ti  Ti1677  1  0.92322368  0.70829908  0.55000000  1.0
  Ti  Ti1678  1  0.92322368  0.83329908  0.55000000  1.0
  Ti  Ti1679  1  0.92322368  0.95829908  0.55000000  1.0
  Ti  Ti1680  1  0.07677632  0.04170092  0.58333333  1.0
  Ti  Ti1681  1  0.07677632  0.16670092  0.58333333  1.0
  Ti  Ti1682  1  0.07677632  0.29170092  0.58333333  1.0
  Ti  Ti1683  1  0.07677632  0.41670092  0.58333333  1.0
  Ti  Ti1684  1  0.07677632  0.54170092  0.58333333  1.0
  Ti  Ti1685  1  0.07677632  0.66670092  0.58333333  1.0
  Ti  Ti1686  1  0.07677632  0.79170092  0.58333333  1.0
  Ti  Ti1687  1  0.07677632  0.91670092  0.58333333  1.0
  Ti  Ti1688  1  0.17677632  0.04170092  0.58333333  1.0
  Ti  Ti1689  1  0.17677632  0.16670092  0.58333333  1.0
  Ti  Ti1690  1  0.17677632  0.29170092  0.58333333  1.0
  Ti  Ti1691  1  0.17677632  0.41670092  0.58333333  1.0
  Ti  Ti1692  1  0.17677632  0.54170092  0.58333333  1.0
  Ti  Ti1693  1  0.17677632  0.66670092  0.58333333  1.0
  Ti  Ti1694  1  0.17677632  0.79170092  0.58333333  1.0
  Ti  Ti1695  1  0.17677632  0.91670092  0.58333333  1.0
  Ti  Ti1696  1  0.27677632  0.04170092  0.58333333  1.0
  Ti  Ti1697  1  0.27677632  0.16670092  0.58333333  1.0
  Ti  Ti1698  1  0.27677632  0.29170092  0.58333333  1.0
  Ti  Ti1699  1  0.27677632  0.41670092  0.58333333  1.0
  Ti  Ti1700  1  0.27677632  0.54170092  0.58333333  1.0
  Ti  Ti1701  1  0.27677632  0.66670092  0.58333333  1.0
  Ti  Ti1702  1  0.27677632  0.79170092  0.58333333  1.0
  Ti  Ti1703  1  0.27677632  0.91670092  0.58333333  1.0
  Ti  Ti1704  1  0.37677632  0.04170092  0.58333333  1.0
  Ti  Ti1705  1  0.37677632  0.16670092  0.58333333  1.0
  Ti  Ti1706  1  0.37677632  0.29170092  0.58333333  1.0
  Ti  Ti1707  1  0.37677632  0.41670092  0.58333333  1.0
  Ti  Ti1708  1  0.37677632  0.54170092  0.58333333  1.0
  Ti  Ti1709  1  0.37677632  0.66670092  0.58333333  1.0
  Ti  Ti1710  1  0.37677632  0.79170092  0.58333333  1.0
  Ti  Ti1711  1  0.37677632  0.91670092  0.58333333  1.0
  Ti  Ti1712  1  0.47677632  0.04170092  0.58333333  1.0
  Ti  Ti1713  1  0.47677632  0.16670092  0.58333333  1.0
  Ti  Ti1714  1  0.47677632  0.29170092  0.58333333  1.0
  Ti  Ti1715  1  0.47677632  0.41670092  0.58333333  1.0
  Ti  Ti1716  1  0.47677632  0.54170092  0.58333333  1.0
  Ti  Ti1717  1  0.47677632  0.66670092  0.58333333  1.0
  Ti  Ti1718  1  0.47677632  0.79170092  0.58333333  1.0
  Ti  Ti1719  1  0.47677632  0.91670092  0.58333333  1.0
  Ti  Ti1720  1  0.57677632  0.04170092  0.58333333  1.0
  Ti  Ti1721  1  0.57677632  0.16670092  0.58333333  1.0
  Ti  Ti1722  1  0.57677632  0.29170092  0.58333333  1.0
  Ti  Ti1723  1  0.57677632  0.41670092  0.58333333  1.0
  Ti  Ti1724  1  0.57677632  0.54170092  0.58333333  1.0
  Ti  Ti1725  1  0.57677632  0.66670092  0.58333333  1.0
  Ti  Ti1726  1  0.57677632  0.79170092  0.58333333  1.0
  Ti  Ti1727  1  0.57677632  0.91670092  0.58333333  1.0
  Ti  Ti1728  1  0.67677632  0.04170092  0.58333333  1.0
  Ti  Ti1729  1  0.67677632  0.16670092  0.58333333  1.0
  Ti  Ti1730  1  0.67677632  0.29170092  0.58333333  1.0
  Ti  Ti1731  1  0.67677632  0.41670092  0.58333333  1.0
  Ti  Ti1732  1  0.67677632  0.54170092  0.58333333  1.0
  Ti  Ti1733  1  0.67677632  0.66670092  0.58333333  1.0
  Ti  Ti1734  1  0.67677632  0.79170092  0.58333333  1.0
  Ti  Ti1735  1  0.67677632  0.91670092  0.58333333  1.0
  Ti  Ti1736  1  0.77677632  0.04170092  0.58333333  1.0
  Ti  Ti1737  1  0.77677632  0.16670092  0.58333333  1.0
  Ti  Ti1738  1  0.77677632  0.29170092  0.58333333  1.0
  Ti  Ti1739  1  0.77677632  0.41670092  0.58333333  1.0
  Ti  Ti1740  1  0.77677632  0.54170092  0.58333333  1.0
  Ti  Ti1741  1  0.77677632  0.66670092  0.58333333  1.0
  Ti  Ti1742  1  0.77677632  0.79170092  0.58333333  1.0
  Ti  Ti1743  1  0.77677632  0.91670092  0.58333333  1.0
  Ti  Ti1744  1  0.87677632  0.04170092  0.58333333  1.0
  Ti  Ti1745  1  0.87677632  0.16670092  0.58333333  1.0
  Ti  Ti1746  1  0.87677632  0.29170092  0.58333333  1.0
  Ti  Ti1747  1  0.87677632  0.41670092  0.58333333  1.0
  Ti  Ti1748  1  0.87677632  0.54170092  0.58333333  1.0
  Ti  Ti1749  1  0.87677632  0.66670092  0.58333333  1.0
  Ti  Ti1750  1  0.87677632  0.79170092  0.58333333  1.0
  Ti  Ti1751  1  0.87677632  0.91670092  0.58333333  1.0
  Ti  Ti1752  1  0.97677632  0.04170092  0.58333333  1.0
  Ti  Ti1753  1  0.97677632  0.16670092  0.58333333  1.0
  Ti  Ti1754  1  0.97677632  0.29170092  0.58333333  1.0
  Ti  Ti1755  1  0.97677632  0.41670092  0.58333333  1.0
  Ti  Ti1756  1  0.97677632  0.54170092  0.58333333  1.0
  Ti  Ti1757  1  0.97677632  0.66670092  0.58333333  1.0
  Ti  Ti1758  1  0.97677632  0.79170092  0.58333333  1.0
  Ti  Ti1759  1  0.97677632  0.91670092  0.58333333  1.0
  Ti  Ti1760  1  0.07322368  0.10420092  0.55000000  1.0
  Ti  Ti1761  1  0.07322368  0.22920092  0.55000000  1.0
  Ti  Ti1762  1  0.07322368  0.35420092  0.55000000  1.0
  Ti  Ti1763  1  0.07322368  0.47920092  0.55000000  1.0
  Ti  Ti1764  1  0.07322368  0.60420092  0.55000000  1.0
  Ti  Ti1765  1  0.07322368  0.72920092  0.55000000  1.0
  Ti  Ti1766  1  0.07322368  0.85420092  0.55000000  1.0
  Ti  Ti1767  1  0.07322368  0.97920092  0.55000000  1.0
  Ti  Ti1768  1  0.17322368  0.10420092  0.55000000  1.0
  Ti  Ti1769  1  0.17322368  0.22920092  0.55000000  1.0
  Ti  Ti1770  1  0.17322368  0.35420092  0.55000000  1.0
  Ti  Ti1771  1  0.17322368  0.47920092  0.55000000  1.0
  Ti  Ti1772  1  0.17322368  0.60420092  0.55000000  1.0
  Ti  Ti1773  1  0.17322368  0.72920092  0.55000000  1.0
  Ti  Ti1774  1  0.17322368  0.85420092  0.55000000  1.0
  Ti  Ti1775  1  0.17322368  0.97920092  0.55000000  1.0
  Ti  Ti1776  1  0.27322368  0.10420092  0.55000000  1.0
  Ti  Ti1777  1  0.27322368  0.22920092  0.55000000  1.0
  Ti  Ti1778  1  0.27322368  0.35420092  0.55000000  1.0
  Ti  Ti1779  1  0.27322368  0.47920092  0.55000000  1.0
  Ti  Ti1780  1  0.27322368  0.60420092  0.55000000  1.0
  Ti  Ti1781  1  0.27322368  0.72920092  0.55000000  1.0
  Ti  Ti1782  1  0.27322368  0.85420092  0.55000000  1.0
  Ti  Ti1783  1  0.27322368  0.97920092  0.55000000  1.0
  Ti  Ti1784  1  0.37322368  0.10420092  0.55000000  1.0
  Ti  Ti1785  1  0.37322368  0.22920092  0.55000000  1.0
  Ti  Ti1786  1  0.37322368  0.35420092  0.55000000  1.0
  Ti  Ti1787  1  0.37322368  0.47920092  0.55000000  1.0
  Ti  Ti1788  1  0.37322368  0.60420092  0.55000000  1.0
  Ti  Ti1789  1  0.37322368  0.72920092  0.55000000  1.0
  Ti  Ti1790  1  0.37322368  0.85420092  0.55000000  1.0
  Ti  Ti1791  1  0.37322368  0.97920092  0.55000000  1.0
  Ti  Ti1792  1  0.47322368  0.10420092  0.55000000  1.0
  Ti  Ti1793  1  0.47322368  0.22920092  0.55000000  1.0
  Ti  Ti1794  1  0.47322368  0.35420092  0.55000000  1.0
  Ti  Ti1795  1  0.47322368  0.47920092  0.55000000  1.0
  Ti  Ti1796  1  0.47322368  0.60420092  0.55000000  1.0
  Ti  Ti1797  1  0.47322368  0.72920092  0.55000000  1.0
  Ti  Ti1798  1  0.47322368  0.85420092  0.55000000  1.0
  Ti  Ti1799  1  0.47322368  0.97920092  0.55000000  1.0
  Ti  Ti1800  1  0.57322368  0.10420092  0.55000000  1.0
  Ti  Ti1801  1  0.57322368  0.22920092  0.55000000  1.0
  Ti  Ti1802  1  0.57322368  0.35420092  0.55000000  1.0
  Ti  Ti1803  1  0.57322368  0.47920092  0.55000000  1.0
  Ti  Ti1804  1  0.57322368  0.60420092  0.55000000  1.0
  Ti  Ti1805  1  0.57322368  0.72920092  0.55000000  1.0
  Ti  Ti1806  1  0.57322368  0.85420092  0.55000000  1.0
  Ti  Ti1807  1  0.57322368  0.97920092  0.55000000  1.0
  Ti  Ti1808  1  0.67322368  0.10420092  0.55000000  1.0
  Ti  Ti1809  1  0.67322368  0.22920092  0.55000000  1.0
  Ti  Ti1810  1  0.67322368  0.35420092  0.55000000  1.0
  Ti  Ti1811  1  0.67322368  0.47920092  0.55000000  1.0
  Ti  Ti1812  1  0.67322368  0.60420092  0.55000000  1.0
  Ti  Ti1813  1  0.67322368  0.72920092  0.55000000  1.0
  Ti  Ti1814  1  0.67322368  0.85420092  0.55000000  1.0
  Ti  Ti1815  1  0.67322368  0.97920092  0.55000000  1.0
  Ti  Ti1816  1  0.77322368  0.10420092  0.55000000  1.0
  Ti  Ti1817  1  0.77322368  0.22920092  0.55000000  1.0
  Ti  Ti1818  1  0.77322368  0.35420092  0.55000000  1.0
  Ti  Ti1819  1  0.77322368  0.47920092  0.55000000  1.0
  Ti  Ti1820  1  0.77322368  0.60420092  0.55000000  1.0
  Ti  Ti1821  1  0.77322368  0.72920092  0.55000000  1.0
  Ti  Ti1822  1  0.77322368  0.85420092  0.55000000  1.0
  Ti  Ti1823  1  0.77322368  0.97920092  0.55000000  1.0
  Ti  Ti1824  1  0.87322368  0.10420092  0.55000000  1.0
  Ti  Ti1825  1  0.87322368  0.22920092  0.55000000  1.0
  Ti  Ti1826  1  0.87322368  0.35420092  0.55000000  1.0
  Ti  Ti1827  1  0.87322368  0.47920092  0.55000000  1.0
  Ti  Ti1828  1  0.87322368  0.60420092  0.55000000  1.0
  Ti  Ti1829  1  0.87322368  0.72920092  0.55000000  1.0
  Ti  Ti1830  1  0.87322368  0.85420092  0.55000000  1.0
  Ti  Ti1831  1  0.87322368  0.97920092  0.55000000  1.0
  Ti  Ti1832  1  0.97322368  0.10420092  0.55000000  1.0
  Ti  Ti1833  1  0.97322368  0.22920092  0.55000000  1.0
  Ti  Ti1834  1  0.97322368  0.35420092  0.55000000  1.0
  Ti  Ti1835  1  0.97322368  0.47920092  0.55000000  1.0
  Ti  Ti1836  1  0.97322368  0.60420092  0.55000000  1.0
  Ti  Ti1837  1  0.97322368  0.72920092  0.55000000  1.0
  Ti  Ti1838  1  0.97322368  0.85420092  0.55000000  1.0
  Ti  Ti1839  1  0.97322368  0.97920092  0.55000000  1.0
  Ti  Ti1840  1  0.02677632  0.02079908  0.58333333  1.0
  Ti  Ti1841  1  0.02677632  0.14579908  0.58333333  1.0
  Ti  Ti1842  1  0.02677632  0.27079908  0.58333333  1.0
  Ti  Ti1843  1  0.02677632  0.39579908  0.58333333  1.0
  Ti  Ti1844  1  0.02677632  0.52079908  0.58333333  1.0
  Ti  Ti1845  1  0.02677632  0.64579908  0.58333333  1.0
  Ti  Ti1846  1  0.02677632  0.77079908  0.58333333  1.0
  Ti  Ti1847  1  0.02677632  0.89579908  0.58333333  1.0
  Ti  Ti1848  1  0.12677632  0.02079908  0.58333333  1.0
  Ti  Ti1849  1  0.12677632  0.14579908  0.58333333  1.0
  Ti  Ti1850  1  0.12677632  0.27079908  0.58333333  1.0
  Ti  Ti1851  1  0.12677632  0.39579908  0.58333333  1.0
  Ti  Ti1852  1  0.12677632  0.52079908  0.58333333  1.0
  Ti  Ti1853  1  0.12677632  0.64579908  0.58333333  1.0
  Ti  Ti1854  1  0.12677632  0.77079908  0.58333333  1.0
  Ti  Ti1855  1  0.12677632  0.89579908  0.58333333  1.0
  Ti  Ti1856  1  0.22677632  0.02079908  0.58333333  1.0
  Ti  Ti1857  1  0.22677632  0.14579908  0.58333333  1.0
  Ti  Ti1858  1  0.22677632  0.27079908  0.58333333  1.0
  Ti  Ti1859  1  0.22677632  0.39579908  0.58333333  1.0
  Ti  Ti1860  1  0.22677632  0.52079908  0.58333333  1.0
  Ti  Ti1861  1  0.22677632  0.64579908  0.58333333  1.0
  Ti  Ti1862  1  0.22677632  0.77079908  0.58333333  1.0
  Ti  Ti1863  1  0.22677632  0.89579908  0.58333333  1.0
  Ti  Ti1864  1  0.32677632  0.02079908  0.58333333  1.0
  Ti  Ti1865  1  0.32677632  0.14579908  0.58333333  1.0
  Ti  Ti1866  1  0.32677632  0.27079908  0.58333333  1.0
  Ti  Ti1867  1  0.32677632  0.39579908  0.58333333  1.0
  Ti  Ti1868  1  0.32677632  0.52079908  0.58333333  1.0
  Ti  Ti1869  1  0.32677632  0.64579908  0.58333333  1.0
  Ti  Ti1870  1  0.32677632  0.77079908  0.58333333  1.0
  Ti  Ti1871  1  0.32677632  0.89579908  0.58333333  1.0
  Ti  Ti1872  1  0.42677632  0.02079908  0.58333333  1.0
  Ti  Ti1873  1  0.42677632  0.14579908  0.58333333  1.0
  Ti  Ti1874  1  0.42677632  0.27079908  0.58333333  1.0
  Ti  Ti1875  1  0.42677632  0.39579908  0.58333333  1.0
  Ti  Ti1876  1  0.42677632  0.52079908  0.58333333  1.0
  Ti  Ti1877  1  0.42677632  0.64579908  0.58333333  1.0
  Ti  Ti1878  1  0.42677632  0.77079908  0.58333333  1.0
  Ti  Ti1879  1  0.42677632  0.89579908  0.58333333  1.0
  Ti  Ti1880  1  0.52677632  0.02079908  0.58333333  1.0
  Ti  Ti1881  1  0.52677632  0.14579908  0.58333333  1.0
  Ti  Ti1882  1  0.52677632  0.27079908  0.58333333  1.0
  Ti  Ti1883  1  0.52677632  0.39579908  0.58333333  1.0
  Ti  Ti1884  1  0.52677632  0.52079908  0.58333333  1.0
  Ti  Ti1885  1  0.52677632  0.64579908  0.58333333  1.0
  Ti  Ti1886  1  0.52677632  0.77079908  0.58333333  1.0
  Ti  Ti1887  1  0.52677632  0.89579908  0.58333333  1.0
  Ti  Ti1888  1  0.62677632  0.02079908  0.58333333  1.0
  Ti  Ti1889  1  0.62677632  0.14579908  0.58333333  1.0
  Ti  Ti1890  1  0.62677632  0.27079908  0.58333333  1.0
  Ti  Ti1891  1  0.62677632  0.39579908  0.58333333  1.0
  Ti  Ti1892  1  0.62677632  0.52079908  0.58333333  1.0
  Ti  Ti1893  1  0.62677632  0.64579908  0.58333333  1.0
  Ti  Ti1894  1  0.62677632  0.77079908  0.58333333  1.0
  Ti  Ti1895  1  0.62677632  0.89579908  0.58333333  1.0
  Ti  Ti1896  1  0.72677632  0.02079908  0.58333333  1.0
  Ti  Ti1897  1  0.72677632  0.14579908  0.58333333  1.0
  Ti  Ti1898  1  0.72677632  0.27079908  0.58333333  1.0
  Ti  Ti1899  1  0.72677632  0.39579908  0.58333333  1.0
  Ti  Ti1900  1  0.72677632  0.52079908  0.58333333  1.0
  Ti  Ti1901  1  0.72677632  0.64579908  0.58333333  1.0
  Ti  Ti1902  1  0.72677632  0.77079908  0.58333333  1.0
  Ti  Ti1903  1  0.72677632  0.89579908  0.58333333  1.0
  Ti  Ti1904  1  0.82677632  0.02079908  0.58333333  1.0
  Ti  Ti1905  1  0.82677632  0.14579908  0.58333333  1.0
  Ti  Ti1906  1  0.82677632  0.27079908  0.58333333  1.0
  Ti  Ti1907  1  0.82677632  0.39579908  0.58333333  1.0
  Ti  Ti1908  1  0.82677632  0.52079908  0.58333333  1.0
  Ti  Ti1909  1  0.82677632  0.64579908  0.58333333  1.0
  Ti  Ti1910  1  0.82677632  0.77079908  0.58333333  1.0
  Ti  Ti1911  1  0.82677632  0.89579908  0.58333333  1.0
  Ti  Ti1912  1  0.92677632  0.02079908  0.58333333  1.0
  Ti  Ti1913  1  0.92677632  0.14579908  0.58333333  1.0
  Ti  Ti1914  1  0.92677632  0.27079908  0.58333333  1.0
  Ti  Ti1915  1  0.92677632  0.39579908  0.58333333  1.0
  Ti  Ti1916  1  0.92677632  0.52079908  0.58333333  1.0
  Ti  Ti1917  1  0.92677632  0.64579908  0.58333333  1.0
  Ti  Ti1918  1  0.92677632  0.77079908  0.58333333  1.0
  Ti  Ti1919  1  0.92677632  0.89579908  0.58333333  1.0
  Ti  Ti1920  1  0.02322368  0.08329908  0.61666667  1.0
  Ti  Ti1921  1  0.02322368  0.20829908  0.61666667  1.0
  Ti  Ti1922  1  0.02322368  0.33329908  0.61666667  1.0
  Ti  Ti1923  1  0.02322368  0.45829908  0.61666667  1.0
  Ti  Ti1924  1  0.02322368  0.58329908  0.61666667  1.0
  Ti  Ti1925  1  0.02322368  0.70829908  0.61666667  1.0
  Ti  Ti1926  1  0.02322368  0.83329908  0.61666667  1.0
  Ti  Ti1927  1  0.02322368  0.95829908  0.61666667  1.0
  Ti  Ti1928  1  0.12322368  0.08329908  0.61666667  1.0
  Ti  Ti1929  1  0.12322368  0.20829908  0.61666667  1.0
  Ti  Ti1930  1  0.12322368  0.33329908  0.61666667  1.0
  Ti  Ti1931  1  0.12322368  0.45829908  0.61666667  1.0
  Ti  Ti1932  1  0.12322368  0.58329908  0.61666667  1.0
  Ti  Ti1933  1  0.12322368  0.70829908  0.61666667  1.0
  Ti  Ti1934  1  0.12322368  0.83329908  0.61666667  1.0
  Ti  Ti1935  1  0.12322368  0.95829908  0.61666667  1.0
  Ti  Ti1936  1  0.22322368  0.08329908  0.61666667  1.0
  Ti  Ti1937  1  0.22322368  0.20829908  0.61666667  1.0
  Ti  Ti1938  1  0.22322368  0.33329908  0.61666667  1.0
  Ti  Ti1939  1  0.22322368  0.45829908  0.61666667  1.0
  Ti  Ti1940  1  0.22322368  0.58329908  0.61666667  1.0
  Ti  Ti1941  1  0.22322368  0.70829908  0.61666667  1.0
  Ti  Ti1942  1  0.22322368  0.83329908  0.61666667  1.0
  Ti  Ti1943  1  0.22322368  0.95829908  0.61666667  1.0
  Ti  Ti1944  1  0.32322368  0.08329908  0.61666667  1.0
  Ti  Ti1945  1  0.32322368  0.20829908  0.61666667  1.0
  Ti  Ti1946  1  0.32322368  0.33329908  0.61666667  1.0
  Ti  Ti1947  1  0.32322368  0.45829908  0.61666667  1.0
  Ti  Ti1948  1  0.32322368  0.58329908  0.61666667  1.0
  Ti  Ti1949  1  0.32322368  0.70829908  0.61666667  1.0
  Ti  Ti1950  1  0.32322368  0.83329908  0.61666667  1.0
  Ti  Ti1951  1  0.32322368  0.95829908  0.61666667  1.0
  Ti  Ti1952  1  0.42322368  0.08329908  0.61666667  1.0
  Ti  Ti1953  1  0.42322368  0.20829908  0.61666667  1.0
  Ti  Ti1954  1  0.42322368  0.33329908  0.61666667  1.0
  Ti  Ti1955  1  0.42322368  0.45829908  0.61666667  1.0
  Ti  Ti1956  1  0.42322368  0.58329908  0.61666667  1.0
  Ti  Ti1957  1  0.42322368  0.70829908  0.61666667  1.0
  Ti  Ti1958  1  0.42322368  0.83329908  0.61666667  1.0
  Ti  Ti1959  1  0.42322368  0.95829908  0.61666667  1.0
  Ti  Ti1960  1  0.52322368  0.08329908  0.61666667  1.0
  Ti  Ti1961  1  0.52322368  0.20829908  0.61666667  1.0
  Ti  Ti1962  1  0.52322368  0.33329908  0.61666667  1.0
  Ti  Ti1963  1  0.52322368  0.45829908  0.61666667  1.0
  Ti  Ti1964  1  0.52322368  0.58329908  0.61666667  1.0
  Ti  Ti1965  1  0.52322368  0.70829908  0.61666667  1.0
  Ti  Ti1966  1  0.52322368  0.83329908  0.61666667  1.0
  Ti  Ti1967  1  0.52322368  0.95829908  0.61666667  1.0
  Ti  Ti1968  1  0.62322368  0.08329908  0.61666667  1.0
  Ti  Ti1969  1  0.62322368  0.20829908  0.61666667  1.0
  Ti  Ti1970  1  0.62322368  0.33329908  0.61666667  1.0
  Ti  Ti1971  1  0.62322368  0.45829908  0.61666667  1.0
  Ti  Ti1972  1  0.62322368  0.58329908  0.61666667  1.0
  Ti  Ti1973  1  0.62322368  0.70829908  0.61666667  1.0
  Ti  Ti1974  1  0.62322368  0.83329908  0.61666667  1.0
  Ti  Ti1975  1  0.62322368  0.95829908  0.61666667  1.0
  Ti  Ti1976  1  0.72322368  0.08329908  0.61666667  1.0
  Ti  Ti1977  1  0.72322368  0.20829908  0.61666667  1.0
  Ti  Ti1978  1  0.72322368  0.33329908  0.61666667  1.0
  Ti  Ti1979  1  0.72322368  0.45829908  0.61666667  1.0
  Ti  Ti1980  1  0.72322368  0.58329908  0.61666667  1.0
  Ti  Ti1981  1  0.72322368  0.70829908  0.61666667  1.0
  Ti  Ti1982  1  0.72322368  0.83329908  0.61666667  1.0
  Ti  Ti1983  1  0.72322368  0.95829908  0.61666667  1.0
  Ti  Ti1984  1  0.82322368  0.08329908  0.61666667  1.0
  Ti  Ti1985  1  0.82322368  0.20829908  0.61666667  1.0
  Ti  Ti1986  1  0.82322368  0.33329908  0.61666667  1.0
  Ti  Ti1987  1  0.82322368  0.45829908  0.61666667  1.0
  Ti  Ti1988  1  0.82322368  0.58329908  0.61666667  1.0
  Ti  Ti1989  1  0.82322368  0.70829908  0.61666667  1.0
  Ti  Ti1990  1  0.82322368  0.83329908  0.61666667  1.0
  Ti  Ti1991  1  0.82322368  0.95829908  0.61666667  1.0
  Ti  Ti1992  1  0.92322368  0.08329908  0.61666667  1.0
  Ti  Ti1993  1  0.92322368  0.20829908  0.61666667  1.0
  Ti  Ti1994  1  0.92322368  0.33329908  0.61666667  1.0
  Ti  Ti1995  1  0.92322368  0.45829908  0.61666667  1.0
  Ti  Ti1996  1  0.92322368  0.58329908  0.61666667  1.0
  Ti  Ti1997  1  0.92322368  0.70829908  0.61666667  1.0
  Ti  Ti1998  1  0.92322368  0.83329908  0.61666667  1.0
  Ti  Ti1999  1  0.92322368  0.95829908  0.61666667  1.0
  Ti  Ti2000  1  0.07677632  0.04170092  0.65000000  1.0
  Ti  Ti2001  1  0.07677632  0.16670092  0.65000000  1.0
  Ti  Ti2002  1  0.07677632  0.29170092  0.65000000  1.0
  Ti  Ti2003  1  0.07677632  0.41670092  0.65000000  1.0
  Ti  Ti2004  1  0.07677632  0.54170092  0.65000000  1.0
  Ti  Ti2005  1  0.07677632  0.66670092  0.65000000  1.0
  Ti  Ti2006  1  0.07677632  0.79170092  0.65000000  1.0
  Ti  Ti2007  1  0.07677632  0.91670092  0.65000000  1.0
  Ti  Ti2008  1  0.17677632  0.04170092  0.65000000  1.0
  Ti  Ti2009  1  0.17677632  0.16670092  0.65000000  1.0
  Ti  Ti2010  1  0.17677632  0.29170092  0.65000000  1.0
  Ti  Ti2011  1  0.17677632  0.41670092  0.65000000  1.0
  Ti  Ti2012  1  0.17677632  0.54170092  0.65000000  1.0
  Ti  Ti2013  1  0.17677632  0.66670092  0.65000000  1.0
  Ti  Ti2014  1  0.17677632  0.79170092  0.65000000  1.0
  Ti  Ti2015  1  0.17677632  0.91670092  0.65000000  1.0
  Ti  Ti2016  1  0.27677632  0.04170092  0.65000000  1.0
  Ti  Ti2017  1  0.27677632  0.16670092  0.65000000  1.0
  Ti  Ti2018  1  0.27677632  0.29170092  0.65000000  1.0
  Ti  Ti2019  1  0.27677632  0.41670092  0.65000000  1.0
  Ti  Ti2020  1  0.27677632  0.54170092  0.65000000  1.0
  Ti  Ti2021  1  0.27677632  0.66670092  0.65000000  1.0
  Ti  Ti2022  1  0.27677632  0.79170092  0.65000000  1.0
  Ti  Ti2023  1  0.27677632  0.91670092  0.65000000  1.0
  Ti  Ti2024  1  0.37677632  0.04170092  0.65000000  1.0
  Ti  Ti2025  1  0.37677632  0.16670092  0.65000000  1.0
  Ti  Ti2026  1  0.37677632  0.29170092  0.65000000  1.0
  Ti  Ti2027  1  0.37677632  0.41670092  0.65000000  1.0
  Ti  Ti2028  1  0.37677632  0.54170092  0.65000000  1.0
  Ti  Ti2029  1  0.37677632  0.66670092  0.65000000  1.0
  Ti  Ti2030  1  0.37677632  0.79170092  0.65000000  1.0
  Ti  Ti2031  1  0.37677632  0.91670092  0.65000000  1.0
  Ti  Ti2032  1  0.47677632  0.04170092  0.65000000  1.0
  Ti  Ti2033  1  0.47677632  0.16670092  0.65000000  1.0
  Ti  Ti2034  1  0.47677632  0.29170092  0.65000000  1.0
  Ti  Ti2035  1  0.47677632  0.41670092  0.65000000  1.0
  Ti  Ti2036  1  0.47677632  0.54170092  0.65000000  1.0
  Ti  Ti2037  1  0.47677632  0.66670092  0.65000000  1.0
  Ti  Ti2038  1  0.47677632  0.79170092  0.65000000  1.0
  Ti  Ti2039  1  0.47677632  0.91670092  0.65000000  1.0
  Ti  Ti2040  1  0.57677632  0.04170092  0.65000000  1.0
  Ti  Ti2041  1  0.57677632  0.16670092  0.65000000  1.0
  Ti  Ti2042  1  0.57677632  0.29170092  0.65000000  1.0
  Ti  Ti2043  1  0.57677632  0.41670092  0.65000000  1.0
  Ti  Ti2044  1  0.57677632  0.54170092  0.65000000  1.0
  Ti  Ti2045  1  0.57677632  0.66670092  0.65000000  1.0
  Ti  Ti2046  1  0.57677632  0.79170092  0.65000000  1.0
  Ti  Ti2047  1  0.57677632  0.91670092  0.65000000  1.0
  Ti  Ti2048  1  0.67677632  0.04170092  0.65000000  1.0
  Ti  Ti2049  1  0.67677632  0.16670092  0.65000000  1.0
  Ti  Ti2050  1  0.67677632  0.29170092  0.65000000  1.0
  Ti  Ti2051  1  0.67677632  0.41670092  0.65000000  1.0
  Ti  Ti2052  1  0.67677632  0.54170092  0.65000000  1.0
  Ti  Ti2053  1  0.67677632  0.66670092  0.65000000  1.0
  Ti  Ti2054  1  0.67677632  0.79170092  0.65000000  1.0
  Ti  Ti2055  1  0.67677632  0.91670092  0.65000000  1.0
  Ti  Ti2056  1  0.77677632  0.04170092  0.65000000  1.0
  Ti  Ti2057  1  0.77677632  0.16670092  0.65000000  1.0
  Ti  Ti2058  1  0.77677632  0.29170092  0.65000000  1.0
  Ti  Ti2059  1  0.77677632  0.41670092  0.65000000  1.0
  Ti  Ti2060  1  0.77677632  0.54170092  0.65000000  1.0
  Ti  Ti2061  1  0.77677632  0.66670092  0.65000000  1.0
  Ti  Ti2062  1  0.77677632  0.79170092  0.65000000  1.0
  Ti  Ti2063  1  0.77677632  0.91670092  0.65000000  1.0
  Ti  Ti2064  1  0.87677632  0.04170092  0.65000000  1.0
  Ti  Ti2065  1  0.87677632  0.16670092  0.65000000  1.0
  Ti  Ti2066  1  0.87677632  0.29170092  0.65000000  1.0
  Ti  Ti2067  1  0.87677632  0.41670092  0.65000000  1.0
  Ti  Ti2068  1  0.87677632  0.54170092  0.65000000  1.0
  Ti  Ti2069  1  0.87677632  0.66670092  0.65000000  1.0
  Ti  Ti2070  1  0.87677632  0.79170092  0.65000000  1.0
  Ti  Ti2071  1  0.87677632  0.91670092  0.65000000  1.0
  Ti  Ti2072  1  0.97677632  0.04170092  0.65000000  1.0
  Ti  Ti2073  1  0.97677632  0.16670092  0.65000000  1.0
  Ti  Ti2074  1  0.97677632  0.29170092  0.65000000  1.0
  Ti  Ti2075  1  0.97677632  0.41670092  0.65000000  1.0
  Ti  Ti2076  1  0.97677632  0.54170092  0.65000000  1.0
  Ti  Ti2077  1  0.97677632  0.66670092  0.65000000  1.0
  Ti  Ti2078  1  0.97677632  0.79170092  0.65000000  1.0
  Ti  Ti2079  1  0.97677632  0.91670092  0.65000000  1.0
  Ti  Ti2080  1  0.07322368  0.10420092  0.61666667  1.0
  Ti  Ti2081  1  0.07322368  0.22920092  0.61666667  1.0
  Ti  Ti2082  1  0.07322368  0.35420092  0.61666667  1.0
  Ti  Ti2083  1  0.07322368  0.47920092  0.61666667  1.0
  Ti  Ti2084  1  0.07322368  0.60420092  0.61666667  1.0
  Ti  Ti2085  1  0.07322368  0.72920092  0.61666667  1.0
  Ti  Ti2086  1  0.07322368  0.85420092  0.61666667  1.0
  Ti  Ti2087  1  0.07322368  0.97920092  0.61666667  1.0
  Ti  Ti2088  1  0.17322368  0.10420092  0.61666667  1.0
  Ti  Ti2089  1  0.17322368  0.22920092  0.61666667  1.0
  Ti  Ti2090  1  0.17322368  0.35420092  0.61666667  1.0
  Ti  Ti2091  1  0.17322368  0.47920092  0.61666667  1.0
  Ti  Ti2092  1  0.17322368  0.60420092  0.61666667  1.0
  Ti  Ti2093  1  0.17322368  0.72920092  0.61666667  1.0
  Ti  Ti2094  1  0.17322368  0.85420092  0.61666667  1.0
  Ti  Ti2095  1  0.17322368  0.97920092  0.61666667  1.0
  Ti  Ti2096  1  0.27322368  0.10420092  0.61666667  1.0
  Ti  Ti2097  1  0.27322368  0.22920092  0.61666667  1.0
  Ti  Ti2098  1  0.27322368  0.35420092  0.61666667  1.0
  Ti  Ti2099  1  0.27322368  0.47920092  0.61666667  1.0
  Ti  Ti2100  1  0.27322368  0.60420092  0.61666667  1.0
  Ti  Ti2101  1  0.27322368  0.72920092  0.61666667  1.0
  Ti  Ti2102  1  0.27322368  0.85420092  0.61666667  1.0
  Ti  Ti2103  1  0.27322368  0.97920092  0.61666667  1.0
  Ti  Ti2104  1  0.37322368  0.10420092  0.61666667  1.0
  Ti  Ti2105  1  0.37322368  0.22920092  0.61666667  1.0
  Ti  Ti2106  1  0.37322368  0.35420092  0.61666667  1.0
  Ti  Ti2107  1  0.37322368  0.47920092  0.61666667  1.0
  Ti  Ti2108  1  0.37322368  0.60420092  0.61666667  1.0
  Ti  Ti2109  1  0.37322368  0.72920092  0.61666667  1.0
  Ti  Ti2110  1  0.37322368  0.85420092  0.61666667  1.0
  Ti  Ti2111  1  0.37322368  0.97920092  0.61666667  1.0
  Ti  Ti2112  1  0.47322368  0.10420092  0.61666667  1.0
  Ti  Ti2113  1  0.47322368  0.22920092  0.61666667  1.0
  Ti  Ti2114  1  0.47322368  0.35420092  0.61666667  1.0
  Ti  Ti2115  1  0.47322368  0.47920092  0.61666667  1.0
  Ti  Ti2116  1  0.47322368  0.60420092  0.61666667  1.0
  Ti  Ti2117  1  0.47322368  0.72920092  0.61666667  1.0
  Ti  Ti2118  1  0.47322368  0.85420092  0.61666667  1.0
  Ti  Ti2119  1  0.47322368  0.97920092  0.61666667  1.0
  Ti  Ti2120  1  0.57322368  0.10420092  0.61666667  1.0
  Ti  Ti2121  1  0.57322368  0.22920092  0.61666667  1.0
  Ti  Ti2122  1  0.57322368  0.35420092  0.61666667  1.0
  Ti  Ti2123  1  0.57322368  0.47920092  0.61666667  1.0
  Ti  Ti2124  1  0.57322368  0.60420092  0.61666667  1.0
  Ti  Ti2125  1  0.57322368  0.72920092  0.61666667  1.0
  Ti  Ti2126  1  0.57322368  0.85420092  0.61666667  1.0
  Ti  Ti2127  1  0.57322368  0.97920092  0.61666667  1.0
  Ti  Ti2128  1  0.67322368  0.10420092  0.61666667  1.0
  Ti  Ti2129  1  0.67322368  0.22920092  0.61666667  1.0
  Ti  Ti2130  1  0.67322368  0.35420092  0.61666667  1.0
  Ti  Ti2131  1  0.67322368  0.47920092  0.61666667  1.0
  Ti  Ti2132  1  0.67322368  0.60420092  0.61666667  1.0
  Ti  Ti2133  1  0.67322368  0.72920092  0.61666667  1.0
  Ti  Ti2134  1  0.67322368  0.85420092  0.61666667  1.0
  Ti  Ti2135  1  0.67322368  0.97920092  0.61666667  1.0
  Ti  Ti2136  1  0.77322368  0.10420092  0.61666667  1.0
  Ti  Ti2137  1  0.77322368  0.22920092  0.61666667  1.0
  Ti  Ti2138  1  0.77322368  0.35420092  0.61666667  1.0
  Ti  Ti2139  1  0.77322368  0.47920092  0.61666667  1.0
  Ti  Ti2140  1  0.77322368  0.60420092  0.61666667  1.0
  Ti  Ti2141  1  0.77322368  0.72920092  0.61666667  1.0
  Ti  Ti2142  1  0.77322368  0.85420092  0.61666667  1.0
  Ti  Ti2143  1  0.77322368  0.97920092  0.61666667  1.0
  Ti  Ti2144  1  0.87322368  0.10420092  0.61666667  1.0
  Ti  Ti2145  1  0.87322368  0.22920092  0.61666667  1.0
  Ti  Ti2146  1  0.87322368  0.35420092  0.61666667  1.0
  Ti  Ti2147  1  0.87322368  0.47920092  0.61666667  1.0
  Ti  Ti2148  1  0.87322368  0.60420092  0.61666667  1.0
  Ti  Ti2149  1  0.87322368  0.72920092  0.61666667  1.0
  Ti  Ti2150  1  0.87322368  0.85420092  0.61666667  1.0
  Ti  Ti2151  1  0.87322368  0.97920092  0.61666667  1.0
  Ti  Ti2152  1  0.97322368  0.10420092  0.61666667  1.0
  Ti  Ti2153  1  0.97322368  0.22920092  0.61666667  1.0
  Ti  Ti2154  1  0.97322368  0.35420092  0.61666667  1.0
  Ti  Ti2155  1  0.97322368  0.47920092  0.61666667  1.0
  Ti  Ti2156  1  0.97322368  0.60420092  0.61666667  1.0
  Ti  Ti2157  1  0.97322368  0.72920092  0.61666667  1.0
  Ti  Ti2158  1  0.97322368  0.85420092  0.61666667  1.0
  Ti  Ti2159  1  0.97322368  0.97920092  0.61666667  1.0
  Ti  Ti2160  1  0.02677632  0.02079908  0.65000000  1.0
  Ti  Ti2161  1  0.02677632  0.14579908  0.65000000  1.0
  Ti  Ti2162  1  0.02677632  0.27079908  0.65000000  1.0
  Ti  Ti2163  1  0.02677632  0.39579908  0.65000000  1.0
  Ti  Ti2164  1  0.02677632  0.52079908  0.65000000  1.0
  Ti  Ti2165  1  0.02677632  0.64579908  0.65000000  1.0
  Ti  Ti2166  1  0.02677632  0.77079908  0.65000000  1.0
  Ti  Ti2167  1  0.02677632  0.89579908  0.65000000  1.0
  Ti  Ti2168  1  0.12677632  0.02079908  0.65000000  1.0
  Ti  Ti2169  1  0.12677632  0.14579908  0.65000000  1.0
  Ti  Ti2170  1  0.12677632  0.27079908  0.65000000  1.0
  Ti  Ti2171  1  0.12677632  0.39579908  0.65000000  1.0
  Ti  Ti2172  1  0.12677632  0.52079908  0.65000000  1.0
  Ti  Ti2173  1  0.12677632  0.64579908  0.65000000  1.0
  Ti  Ti2174  1  0.12677632  0.77079908  0.65000000  1.0
  Ti  Ti2175  1  0.12677632  0.89579908  0.65000000  1.0
  Ti  Ti2176  1  0.22677632  0.02079908  0.65000000  1.0
  Ti  Ti2177  1  0.22677632  0.14579908  0.65000000  1.0
  Ti  Ti2178  1  0.22677632  0.27079908  0.65000000  1.0
  Ti  Ti2179  1  0.22677632  0.39579908  0.65000000  1.0
  Ti  Ti2180  1  0.22677632  0.52079908  0.65000000  1.0
  Ti  Ti2181  1  0.22677632  0.64579908  0.65000000  1.0
  Ti  Ti2182  1  0.22677632  0.77079908  0.65000000  1.0
  Ti  Ti2183  1  0.22677632  0.89579908  0.65000000  1.0
  Ti  Ti2184  1  0.32677632  0.02079908  0.65000000  1.0
  Ti  Ti2185  1  0.32677632  0.14579908  0.65000000  1.0
  Ti  Ti2186  1  0.32677632  0.27079908  0.65000000  1.0
  Ti  Ti2187  1  0.32677632  0.39579908  0.65000000  1.0
  Ti  Ti2188  1  0.32677632  0.52079908  0.65000000  1.0
  Ti  Ti2189  1  0.32677632  0.64579908  0.65000000  1.0
  Ti  Ti2190  1  0.32677632  0.77079908  0.65000000  1.0
  Ti  Ti2191  1  0.32677632  0.89579908  0.65000000  1.0
  Ti  Ti2192  1  0.42677632  0.02079908  0.65000000  1.0
  Ti  Ti2193  1  0.42677632  0.14579908  0.65000000  1.0
  Ti  Ti2194  1  0.42677632  0.27079908  0.65000000  1.0
  Ti  Ti2195  1  0.42677632  0.39579908  0.65000000  1.0
  Ti  Ti2196  1  0.42677632  0.52079908  0.65000000  1.0
  Ti  Ti2197  1  0.42677632  0.64579908  0.65000000  1.0
  Ti  Ti2198  1  0.42677632  0.77079908  0.65000000  1.0
  Ti  Ti2199  1  0.42677632  0.89579908  0.65000000  1.0
  Ti  Ti2200  1  0.52677632  0.02079908  0.65000000  1.0
  Ti  Ti2201  1  0.52677632  0.14579908  0.65000000  1.0
  Ti  Ti2202  1  0.52677632  0.27079908  0.65000000  1.0
  Ti  Ti2203  1  0.52677632  0.39579908  0.65000000  1.0
  Ti  Ti2204  1  0.52677632  0.52079908  0.65000000  1.0
  Ti  Ti2205  1  0.52677632  0.64579908  0.65000000  1.0
  Ti  Ti2206  1  0.52677632  0.77079908  0.65000000  1.0
  Ti  Ti2207  1  0.52677632  0.89579908  0.65000000  1.0
  Ti  Ti2208  1  0.62677632  0.02079908  0.65000000  1.0
  Ti  Ti2209  1  0.62677632  0.14579908  0.65000000  1.0
  Ti  Ti2210  1  0.62677632  0.27079908  0.65000000  1.0
  Ti  Ti2211  1  0.62677632  0.39579908  0.65000000  1.0
  Ti  Ti2212  1  0.62677632  0.52079908  0.65000000  1.0
  Ti  Ti2213  1  0.62677632  0.64579908  0.65000000  1.0
  Ti  Ti2214  1  0.62677632  0.77079908  0.65000000  1.0
  Ti  Ti2215  1  0.62677632  0.89579908  0.65000000  1.0
  Ti  Ti2216  1  0.72677632  0.02079908  0.65000000  1.0
  Ti  Ti2217  1  0.72677632  0.14579908  0.65000000  1.0
  Ti  Ti2218  1  0.72677632  0.27079908  0.65000000  1.0
  Ti  Ti2219  1  0.72677632  0.39579908  0.65000000  1.0
  Ti  Ti2220  1  0.72677632  0.52079908  0.65000000  1.0
  Ti  Ti2221  1  0.72677632  0.64579908  0.65000000  1.0
  Ti  Ti2222  1  0.72677632  0.77079908  0.65000000  1.0
  Ti  Ti2223  1  0.72677632  0.89579908  0.65000000  1.0
  Ti  Ti2224  1  0.82677632  0.02079908  0.65000000  1.0
  Ti  Ti2225  1  0.82677632  0.14579908  0.65000000  1.0
  Ti  Ti2226  1  0.82677632  0.27079908  0.65000000  1.0
  Ti  Ti2227  1  0.82677632  0.39579908  0.65000000  1.0
  Ti  Ti2228  1  0.82677632  0.52079908  0.65000000  1.0
  Ti  Ti2229  1  0.82677632  0.64579908  0.65000000  1.0
  Ti  Ti2230  1  0.82677632  0.77079908  0.65000000  1.0
  Ti  Ti2231  1  0.82677632  0.89579908  0.65000000  1.0
  Ti  Ti2232  1  0.92677632  0.02079908  0.65000000  1.0
  Ti  Ti2233  1  0.92677632  0.14579908  0.65000000  1.0
  Ti  Ti2234  1  0.92677632  0.27079908  0.65000000  1.0
  Ti  Ti2235  1  0.92677632  0.39579908  0.65000000  1.0
  Ti  Ti2236  1  0.92677632  0.52079908  0.65000000  1.0
  Ti  Ti2237  1  0.92677632  0.64579908  0.65000000  1.0
  Ti  Ti2238  1  0.92677632  0.77079908  0.65000000  1.0
  Ti  Ti2239  1  0.92677632  0.89579908  0.65000000  1.0
  Ti  Ti2240  1  0.02322368  0.08329908  0.68333333  1.0
  Ti  Ti2241  1  0.02322368  0.20829908  0.68333333  1.0
  Ti  Ti2242  1  0.02322368  0.33329908  0.68333333  1.0
  Ti  Ti2243  1  0.02322368  0.45829908  0.68333333  1.0
  Ti  Ti2244  1  0.02322368  0.58329908  0.68333333  1.0
  Ti  Ti2245  1  0.02322368  0.70829908  0.68333333  1.0
  Ti  Ti2246  1  0.02322368  0.83329908  0.68333333  1.0
  Ti  Ti2247  1  0.02322368  0.95829908  0.68333333  1.0
  Ti  Ti2248  1  0.12322368  0.08329908  0.68333333  1.0
  Ti  Ti2249  1  0.12322368  0.20829908  0.68333333  1.0
  Ti  Ti2250  1  0.12322368  0.33329908  0.68333333  1.0
  Ti  Ti2251  1  0.12322368  0.45829908  0.68333333  1.0
  Ti  Ti2252  1  0.12322368  0.58329908  0.68333333  1.0
  Ti  Ti2253  1  0.12322368  0.70829908  0.68333333  1.0
  Ti  Ti2254  1  0.12322368  0.83329908  0.68333333  1.0
  Ti  Ti2255  1  0.12322368  0.95829908  0.68333333  1.0
  Ti  Ti2256  1  0.22322368  0.08329908  0.68333333  1.0
  Ti  Ti2257  1  0.22322368  0.20829908  0.68333333  1.0
  Ti  Ti2258  1  0.22322368  0.33329908  0.68333333  1.0
  Ti  Ti2259  1  0.22322368  0.45829908  0.68333333  1.0
  Ti  Ti2260  1  0.22322368  0.58329908  0.68333333  1.0
  Ti  Ti2261  1  0.22322368  0.70829908  0.68333333  1.0
  Ti  Ti2262  1  0.22322368  0.83329908  0.68333333  1.0
  Ti  Ti2263  1  0.22322368  0.95829908  0.68333333  1.0
  Ti  Ti2264  1  0.32322368  0.08329908  0.68333333  1.0
  Ti  Ti2265  1  0.32322368  0.20829908  0.68333333  1.0
  Ti  Ti2266  1  0.32322368  0.33329908  0.68333333  1.0
  Ti  Ti2267  1  0.32322368  0.45829908  0.68333333  1.0
  Ti  Ti2268  1  0.32322368  0.58329908  0.68333333  1.0
  Ti  Ti2269  1  0.32322368  0.70829908  0.68333333  1.0
  Ti  Ti2270  1  0.32322368  0.83329908  0.68333333  1.0
  Ti  Ti2271  1  0.32322368  0.95829908  0.68333333  1.0
  Ti  Ti2272  1  0.42322368  0.08329908  0.68333333  1.0
  Ti  Ti2273  1  0.42322368  0.20829908  0.68333333  1.0
  Ti  Ti2274  1  0.42322368  0.33329908  0.68333333  1.0
  Ti  Ti2275  1  0.42322368  0.45829908  0.68333333  1.0
  Ti  Ti2276  1  0.42322368  0.58329908  0.68333333  1.0
  Ti  Ti2277  1  0.42322368  0.70829908  0.68333333  1.0
  Ti  Ti2278  1  0.42322368  0.83329908  0.68333333  1.0
  Ti  Ti2279  1  0.42322368  0.95829908  0.68333333  1.0
  Ti  Ti2280  1  0.52322368  0.08329908  0.68333333  1.0
  Ti  Ti2281  1  0.52322368  0.20829908  0.68333333  1.0
  Ti  Ti2282  1  0.52322368  0.33329908  0.68333333  1.0
  Ti  Ti2283  1  0.52322368  0.45829908  0.68333333  1.0
  Ti  Ti2284  1  0.52322368  0.58329908  0.68333333  1.0
  Ti  Ti2285  1  0.52322368  0.70829908  0.68333333  1.0
  Ti  Ti2286  1  0.52322368  0.83329908  0.68333333  1.0
  Ti  Ti2287  1  0.52322368  0.95829908  0.68333333  1.0
  Ti  Ti2288  1  0.62322368  0.08329908  0.68333333  1.0
  Ti  Ti2289  1  0.62322368  0.20829908  0.68333333  1.0
  Ti  Ti2290  1  0.62322368  0.33329908  0.68333333  1.0
  Ti  Ti2291  1  0.62322368  0.45829908  0.68333333  1.0
  Ti  Ti2292  1  0.62322368  0.58329908  0.68333333  1.0
  Ti  Ti2293  1  0.62322368  0.70829908  0.68333333  1.0
  Ti  Ti2294  1  0.62322368  0.83329908  0.68333333  1.0
  Ti  Ti2295  1  0.62322368  0.95829908  0.68333333  1.0
  Ti  Ti2296  1  0.72322368  0.08329908  0.68333333  1.0
  Ti  Ti2297  1  0.72322368  0.20829908  0.68333333  1.0
  Ti  Ti2298  1  0.72322368  0.33329908  0.68333333  1.0
  Ti  Ti2299  1  0.72322368  0.45829908  0.68333333  1.0
  Ti  Ti2300  1  0.72322368  0.58329908  0.68333333  1.0
  Ti  Ti2301  1  0.72322368  0.70829908  0.68333333  1.0
  Ti  Ti2302  1  0.72322368  0.83329908  0.68333333  1.0
  Ti  Ti2303  1  0.72322368  0.95829908  0.68333333  1.0
  Ti  Ti2304  1  0.82322368  0.08329908  0.68333333  1.0
  Ti  Ti2305  1  0.82322368  0.20829908  0.68333333  1.0
  Ti  Ti2306  1  0.82322368  0.33329908  0.68333333  1.0
  Ti  Ti2307  1  0.82322368  0.45829908  0.68333333  1.0
  Ti  Ti2308  1  0.82322368  0.58329908  0.68333333  1.0
  Ti  Ti2309  1  0.82322368  0.70829908  0.68333333  1.0
  Ti  Ti2310  1  0.82322368  0.83329908  0.68333333  1.0
  Ti  Ti2311  1  0.82322368  0.95829908  0.68333333  1.0
  Ti  Ti2312  1  0.92322368  0.08329908  0.68333333  1.0
  Ti  Ti2313  1  0.92322368  0.20829908  0.68333333  1.0
  Ti  Ti2314  1  0.92322368  0.33329908  0.68333333  1.0
  Ti  Ti2315  1  0.92322368  0.45829908  0.68333333  1.0
  Ti  Ti2316  1  0.92322368  0.58329908  0.68333333  1.0
  Ti  Ti2317  1  0.92322368  0.70829908  0.68333333  1.0
  Ti  Ti2318  1  0.92322368  0.83329908  0.68333333  1.0
  Ti  Ti2319  1  0.92322368  0.95829908  0.68333333  1.0
  Ti  Ti2320  1  0.07677632  0.04170092  0.71666667  1.0
  Ti  Ti2321  1  0.07677632  0.16670092  0.71666667  1.0
  Ti  Ti2322  1  0.07677632  0.29170092  0.71666667  1.0
  Ti  Ti2323  1  0.07677632  0.41670092  0.71666667  1.0
  Ti  Ti2324  1  0.07677632  0.54170092  0.71666667  1.0
  Ti  Ti2325  1  0.07677632  0.66670092  0.71666667  1.0
  Ti  Ti2326  1  0.07677632  0.79170092  0.71666667  1.0
  Ti  Ti2327  1  0.07677632  0.91670092  0.71666667  1.0
  Ti  Ti2328  1  0.17677632  0.04170092  0.71666667  1.0
  Ti  Ti2329  1  0.17677632  0.16670092  0.71666667  1.0
  Ti  Ti2330  1  0.17677632  0.29170092  0.71666667  1.0
  Ti  Ti2331  1  0.17677632  0.41670092  0.71666667  1.0
  Ti  Ti2332  1  0.17677632  0.54170092  0.71666667  1.0
  Ti  Ti2333  1  0.17677632  0.66670092  0.71666667  1.0
  Ti  Ti2334  1  0.17677632  0.79170092  0.71666667  1.0
  Ti  Ti2335  1  0.17677632  0.91670092  0.71666667  1.0
  Ti  Ti2336  1  0.27677632  0.04170092  0.71666667  1.0
  Ti  Ti2337  1  0.27677632  0.16670092  0.71666667  1.0
  Ti  Ti2338  1  0.27677632  0.29170092  0.71666667  1.0
  Ti  Ti2339  1  0.27677632  0.41670092  0.71666667  1.0
  Ti  Ti2340  1  0.27677632  0.54170092  0.71666667  1.0
  Ti  Ti2341  1  0.27677632  0.66670092  0.71666667  1.0
  Ti  Ti2342  1  0.27677632  0.79170092  0.71666667  1.0
  Ti  Ti2343  1  0.27677632  0.91670092  0.71666667  1.0
  Ti  Ti2344  1  0.37677632  0.04170092  0.71666667  1.0
  Ti  Ti2345  1  0.37677632  0.16670092  0.71666667  1.0
  Ti  Ti2346  1  0.37677632  0.29170092  0.71666667  1.0
  Ti  Ti2347  1  0.37677632  0.41670092  0.71666667  1.0
  Ti  Ti2348  1  0.37677632  0.54170092  0.71666667  1.0
  Ti  Ti2349  1  0.37677632  0.66670092  0.71666667  1.0
  Ti  Ti2350  1  0.37677632  0.79170092  0.71666667  1.0
  Ti  Ti2351  1  0.37677632  0.91670092  0.71666667  1.0
  Ti  Ti2352  1  0.47677632  0.04170092  0.71666667  1.0
  Ti  Ti2353  1  0.47677632  0.16670092  0.71666667  1.0
  Ti  Ti2354  1  0.47677632  0.29170092  0.71666667  1.0
  Ti  Ti2355  1  0.47677632  0.41670092  0.71666667  1.0
  Ti  Ti2356  1  0.47677632  0.54170092  0.71666667  1.0
  Ti  Ti2357  1  0.47677632  0.66670092  0.71666667  1.0
  Ti  Ti2358  1  0.47677632  0.79170092  0.71666667  1.0
  Ti  Ti2359  1  0.47677632  0.91670092  0.71666667  1.0
  Ti  Ti2360  1  0.57677632  0.04170092  0.71666667  1.0
  Ti  Ti2361  1  0.57677632  0.16670092  0.71666667  1.0
  Ti  Ti2362  1  0.57677632  0.29170092  0.71666667  1.0
  Ti  Ti2363  1  0.57677632  0.41670092  0.71666667  1.0
  Ti  Ti2364  1  0.57677632  0.54170092  0.71666667  1.0
  Ti  Ti2365  1  0.57677632  0.66670092  0.71666667  1.0
  Ti  Ti2366  1  0.57677632  0.79170092  0.71666667  1.0
  Ti  Ti2367  1  0.57677632  0.91670092  0.71666667  1.0
  Ti  Ti2368  1  0.67677632  0.04170092  0.71666667  1.0
  Ti  Ti2369  1  0.67677632  0.16670092  0.71666667  1.0
  Ti  Ti2370  1  0.67677632  0.29170092  0.71666667  1.0
  Ti  Ti2371  1  0.67677632  0.41670092  0.71666667  1.0
  Ti  Ti2372  1  0.67677632  0.54170092  0.71666667  1.0
  Ti  Ti2373  1  0.67677632  0.66670092  0.71666667  1.0
  Ti  Ti2374  1  0.67677632  0.79170092  0.71666667  1.0
  Ti  Ti2375  1  0.67677632  0.91670092  0.71666667  1.0
  Ti  Ti2376  1  0.77677632  0.04170092  0.71666667  1.0
  Ti  Ti2377  1  0.77677632  0.16670092  0.71666667  1.0
  Ti  Ti2378  1  0.77677632  0.29170092  0.71666667  1.0
  Ti  Ti2379  1  0.77677632  0.41670092  0.71666667  1.0
  Ti  Ti2380  1  0.77677632  0.54170092  0.71666667  1.0
  Ti  Ti2381  1  0.77677632  0.66670092  0.71666667  1.0
  Ti  Ti2382  1  0.77677632  0.79170092  0.71666667  1.0
  Ti  Ti2383  1  0.77677632  0.91670092  0.71666667  1.0
  Ti  Ti2384  1  0.87677632  0.04170092  0.71666667  1.0
  Ti  Ti2385  1  0.87677632  0.16670092  0.71666667  1.0
  Ti  Ti2386  1  0.87677632  0.29170092  0.71666667  1.0
  Ti  Ti2387  1  0.87677632  0.41670092  0.71666667  1.0
  Ti  Ti2388  1  0.87677632  0.54170092  0.71666667  1.0
  Ti  Ti2389  1  0.87677632  0.66670092  0.71666667  1.0
  Ti  Ti2390  1  0.87677632  0.79170092  0.71666667  1.0
  Ti  Ti2391  1  0.87677632  0.91670092  0.71666667  1.0
  Ti  Ti2392  1  0.97677632  0.04170092  0.71666667  1.0
  Ti  Ti2393  1  0.97677632  0.16670092  0.71666667  1.0
  Ti  Ti2394  1  0.97677632  0.29170092  0.71666667  1.0
  Ti  Ti2395  1  0.97677632  0.41670092  0.71666667  1.0
  Ti  Ti2396  1  0.97677632  0.54170092  0.71666667  1.0
  Ti  Ti2397  1  0.97677632  0.66670092  0.71666667  1.0
  Ti  Ti2398  1  0.97677632  0.79170092  0.71666667  1.0
  Ti  Ti2399  1  0.97677632  0.91670092  0.71666667  1.0
  Ti  Ti2400  1  0.07322368  0.10420092  0.68333333  1.0
  Ti  Ti2401  1  0.07322368  0.22920092  0.68333333  1.0
  Ti  Ti2402  1  0.07322368  0.35420092  0.68333333  1.0
  Ti  Ti2403  1  0.07322368  0.47920092  0.68333333  1.0
  Ti  Ti2404  1  0.07322368  0.60420092  0.68333333  1.0
  Ti  Ti2405  1  0.07322368  0.72920092  0.68333333  1.0
  Ti  Ti2406  1  0.07322368  0.85420092  0.68333333  1.0
  Ti  Ti2407  1  0.07322368  0.97920092  0.68333333  1.0
  Ti  Ti2408  1  0.17322368  0.10420092  0.68333333  1.0
  Ti  Ti2409  1  0.17322368  0.22920092  0.68333333  1.0
  Ti  Ti2410  1  0.17322368  0.35420092  0.68333333  1.0
  Ti  Ti2411  1  0.17322368  0.47920092  0.68333333  1.0
  Ti  Ti2412  1  0.17322368  0.60420092  0.68333333  1.0
  Ti  Ti2413  1  0.17322368  0.72920092  0.68333333  1.0
  Ti  Ti2414  1  0.17322368  0.85420092  0.68333333  1.0
  Ti  Ti2415  1  0.17322368  0.97920092  0.68333333  1.0
  Ti  Ti2416  1  0.27322368  0.10420092  0.68333333  1.0
  Ti  Ti2417  1  0.27322368  0.22920092  0.68333333  1.0
  Ti  Ti2418  1  0.27322368  0.35420092  0.68333333  1.0
  Ti  Ti2419  1  0.27322368  0.47920092  0.68333333  1.0
  Ti  Ti2420  1  0.27322368  0.60420092  0.68333333  1.0
  Ti  Ti2421  1  0.27322368  0.72920092  0.68333333  1.0
  Ti  Ti2422  1  0.27322368  0.85420092  0.68333333  1.0
  Ti  Ti2423  1  0.27322368  0.97920092  0.68333333  1.0
  Ti  Ti2424  1  0.37322368  0.10420092  0.68333333  1.0
  Ti  Ti2425  1  0.37322368  0.22920092  0.68333333  1.0
  Ti  Ti2426  1  0.37322368  0.35420092  0.68333333  1.0
  Ti  Ti2427  1  0.37322368  0.47920092  0.68333333  1.0
  Ti  Ti2428  1  0.37322368  0.60420092  0.68333333  1.0
  Ti  Ti2429  1  0.37322368  0.72920092  0.68333333  1.0
  Ti  Ti2430  1  0.37322368  0.85420092  0.68333333  1.0
  Ti  Ti2431  1  0.37322368  0.97920092  0.68333333  1.0
  Ti  Ti2432  1  0.47322368  0.10420092  0.68333333  1.0
  Ti  Ti2433  1  0.47322368  0.22920092  0.68333333  1.0
  Ti  Ti2434  1  0.47322368  0.35420092  0.68333333  1.0
  Ti  Ti2435  1  0.47322368  0.47920092  0.68333333  1.0
  Ti  Ti2436  1  0.47322368  0.60420092  0.68333333  1.0
  Ti  Ti2437  1  0.47322368  0.72920092  0.68333333  1.0
  Ti  Ti2438  1  0.47322368  0.85420092  0.68333333  1.0
  Ti  Ti2439  1  0.47322368  0.97920092  0.68333333  1.0
  Ti  Ti2440  1  0.57322368  0.10420092  0.68333333  1.0
  Ti  Ti2441  1  0.57322368  0.22920092  0.68333333  1.0
  Ti  Ti2442  1  0.57322368  0.35420092  0.68333333  1.0
  Ti  Ti2443  1  0.57322368  0.47920092  0.68333333  1.0
  Ti  Ti2444  1  0.57322368  0.60420092  0.68333333  1.0
  Ti  Ti2445  1  0.57322368  0.72920092  0.68333333  1.0
  Ti  Ti2446  1  0.57322368  0.85420092  0.68333333  1.0
  Ti  Ti2447  1  0.57322368  0.97920092  0.68333333  1.0
  Ti  Ti2448  1  0.67322368  0.10420092  0.68333333  1.0
  Ti  Ti2449  1  0.67322368  0.22920092  0.68333333  1.0
  Ti  Ti2450  1  0.67322368  0.35420092  0.68333333  1.0
  Ti  Ti2451  1  0.67322368  0.47920092  0.68333333  1.0
  Ti  Ti2452  1  0.67322368  0.60420092  0.68333333  1.0
  Ti  Ti2453  1  0.67322368  0.72920092  0.68333333  1.0
  Ti  Ti2454  1  0.67322368  0.85420092  0.68333333  1.0
  Ti  Ti2455  1  0.67322368  0.97920092  0.68333333  1.0
  Ti  Ti2456  1  0.77322368  0.10420092  0.68333333  1.0
  Ti  Ti2457  1  0.77322368  0.22920092  0.68333333  1.0
  Ti  Ti2458  1  0.77322368  0.35420092  0.68333333  1.0
  Ti  Ti2459  1  0.77322368  0.47920092  0.68333333  1.0
  Ti  Ti2460  1  0.77322368  0.60420092  0.68333333  1.0
  Ti  Ti2461  1  0.77322368  0.72920092  0.68333333  1.0
  Ti  Ti2462  1  0.77322368  0.85420092  0.68333333  1.0
  Ti  Ti2463  1  0.77322368  0.97920092  0.68333333  1.0
  Ti  Ti2464  1  0.87322368  0.10420092  0.68333333  1.0
  Ti  Ti2465  1  0.87322368  0.22920092  0.68333333  1.0
  Ti  Ti2466  1  0.87322368  0.35420092  0.68333333  1.0
  Ti  Ti2467  1  0.87322368  0.47920092  0.68333333  1.0
  Ti  Ti2468  1  0.87322368  0.60420092  0.68333333  1.0
  Ti  Ti2469  1  0.87322368  0.72920092  0.68333333  1.0
  Ti  Ti2470  1  0.87322368  0.85420092  0.68333333  1.0
  Ti  Ti2471  1  0.87322368  0.97920092  0.68333333  1.0
  Ti  Ti2472  1  0.97322368  0.10420092  0.68333333  1.0
  Ti  Ti2473  1  0.97322368  0.22920092  0.68333333  1.0
  Ti  Ti2474  1  0.97322368  0.35420092  0.68333333  1.0
  Ti  Ti2475  1  0.97322368  0.47920092  0.68333333  1.0
  Ti  Ti2476  1  0.97322368  0.60420092  0.68333333  1.0
  Ti  Ti2477  1  0.97322368  0.72920092  0.68333333  1.0
  Ti  Ti2478  1  0.97322368  0.85420092  0.68333333  1.0
  Ti  Ti2479  1  0.97322368  0.97920092  0.68333333  1.0
  Ti  Ti2480  1  0.02677632  0.02079908  0.71666667  1.0
  Ti  Ti2481  1  0.02677632  0.14579908  0.71666667  1.0
  Ti  Ti2482  1  0.02677632  0.27079908  0.71666667  1.0
  Ti  Ti2483  1  0.02677632  0.39579908  0.71666667  1.0
  Ti  Ti2484  1  0.02677632  0.52079908  0.71666667  1.0
  Ti  Ti2485  1  0.02677632  0.64579908  0.71666667  1.0
  Ti  Ti2486  1  0.02677632  0.77079908  0.71666667  1.0
  Ti  Ti2487  1  0.02677632  0.89579908  0.71666667  1.0
  Ti  Ti2488  1  0.12677632  0.02079908  0.71666667  1.0
  Ti  Ti2489  1  0.12677632  0.14579908  0.71666667  1.0
  Ti  Ti2490  1  0.12677632  0.27079908  0.71666667  1.0
  Ti  Ti2491  1  0.12677632  0.39579908  0.71666667  1.0
  Ti  Ti2492  1  0.12677632  0.52079908  0.71666667  1.0
  Ti  Ti2493  1  0.12677632  0.64579908  0.71666667  1.0
  Ti  Ti2494  1  0.12677632  0.77079908  0.71666667  1.0
  Ti  Ti2495  1  0.12677632  0.89579908  0.71666667  1.0
  Ti  Ti2496  1  0.22677632  0.02079908  0.71666667  1.0
  Ti  Ti2497  1  0.22677632  0.14579908  0.71666667  1.0
  Ti  Ti2498  1  0.22677632  0.27079908  0.71666667  1.0
  Ti  Ti2499  1  0.22677632  0.39579908  0.71666667  1.0
  Ti  Ti2500  1  0.22677632  0.52079908  0.71666667  1.0
  Ti  Ti2501  1  0.22677632  0.64579908  0.71666667  1.0
  Ti  Ti2502  1  0.22677632  0.77079908  0.71666667  1.0
  Ti  Ti2503  1  0.22677632  0.89579908  0.71666667  1.0
  Ti  Ti2504  1  0.32677632  0.02079908  0.71666667  1.0
  Ti  Ti2505  1  0.32677632  0.14579908  0.71666667  1.0
  Ti  Ti2506  1  0.32677632  0.27079908  0.71666667  1.0
  Ti  Ti2507  1  0.32677632  0.39579908  0.71666667  1.0
  Ti  Ti2508  1  0.32677632  0.52079908  0.71666667  1.0
  Ti  Ti2509  1  0.32677632  0.64579908  0.71666667  1.0
  Ti  Ti2510  1  0.32677632  0.77079908  0.71666667  1.0
  Ti  Ti2511  1  0.32677632  0.89579908  0.71666667  1.0
  Ti  Ti2512  1  0.42677632  0.02079908  0.71666667  1.0
  Ti  Ti2513  1  0.42677632  0.14579908  0.71666667  1.0
  Ti  Ti2514  1  0.42677632  0.27079908  0.71666667  1.0
  Ti  Ti2515  1  0.42677632  0.39579908  0.71666667  1.0
  Ti  Ti2516  1  0.42677632  0.52079908  0.71666667  1.0
  Ti  Ti2517  1  0.42677632  0.64579908  0.71666667  1.0
  Ti  Ti2518  1  0.42677632  0.77079908  0.71666667  1.0
  Ti  Ti2519  1  0.42677632  0.89579908  0.71666667  1.0
  Ti  Ti2520  1  0.52677632  0.02079908  0.71666667  1.0
  Ti  Ti2521  1  0.52677632  0.14579908  0.71666667  1.0
  Ti  Ti2522  1  0.52677632  0.27079908  0.71666667  1.0
  Ti  Ti2523  1  0.52677632  0.39579908  0.71666667  1.0
  Ti  Ti2524  1  0.52677632  0.52079908  0.71666667  1.0
  Ti  Ti2525  1  0.52677632  0.64579908  0.71666667  1.0
  Ti  Ti2526  1  0.52677632  0.77079908  0.71666667  1.0
  Ti  Ti2527  1  0.52677632  0.89579908  0.71666667  1.0
  Ti  Ti2528  1  0.62677632  0.02079908  0.71666667  1.0
  Ti  Ti2529  1  0.62677632  0.14579908  0.71666667  1.0
  Ti  Ti2530  1  0.62677632  0.27079908  0.71666667  1.0
  Ti  Ti2531  1  0.62677632  0.39579908  0.71666667  1.0
  Ti  Ti2532  1  0.62677632  0.52079908  0.71666667  1.0
  Ti  Ti2533  1  0.62677632  0.64579908  0.71666667  1.0
  Ti  Ti2534  1  0.62677632  0.77079908  0.71666667  1.0
  Ti  Ti2535  1  0.62677632  0.89579908  0.71666667  1.0
  Ti  Ti2536  1  0.72677632  0.02079908  0.71666667  1.0
  Ti  Ti2537  1  0.72677632  0.14579908  0.71666667  1.0
  Ti  Ti2538  1  0.72677632  0.27079908  0.71666667  1.0
  Ti  Ti2539  1  0.72677632  0.39579908  0.71666667  1.0
  Ti  Ti2540  1  0.72677632  0.52079908  0.71666667  1.0
  Ti  Ti2541  1  0.72677632  0.64579908  0.71666667  1.0
  Ti  Ti2542  1  0.72677632  0.77079908  0.71666667  1.0
  Ti  Ti2543  1  0.72677632  0.89579908  0.71666667  1.0
  Ti  Ti2544  1  0.82677632  0.02079908  0.71666667  1.0
  Ti  Ti2545  1  0.82677632  0.14579908  0.71666667  1.0
  Ti  Ti2546  1  0.82677632  0.27079908  0.71666667  1.0
  Ti  Ti2547  1  0.82677632  0.39579908  0.71666667  1.0
  Ti  Ti2548  1  0.82677632  0.52079908  0.71666667  1.0
  Ti  Ti2549  1  0.82677632  0.64579908  0.71666667  1.0
  Ti  Ti2550  1  0.82677632  0.77079908  0.71666667  1.0
  Ti  Ti2551  1  0.82677632  0.89579908  0.71666667  1.0
  Ti  Ti2552  1  0.92677632  0.02079908  0.71666667  1.0
  Ti  Ti2553  1  0.92677632  0.14579908  0.71666667  1.0
  Ti  Ti2554  1  0.92677632  0.27079908  0.71666667  1.0
  Ti  Ti2555  1  0.92677632  0.39579908  0.71666667  1.0
  Ti  Ti2556  1  0.92677632  0.52079908  0.71666667  1.0
  Ti  Ti2557  1  0.92677632  0.64579908  0.71666667  1.0
  Ti  Ti2558  1  0.92677632  0.77079908  0.71666667  1.0
  Ti  Ti2559  1  0.92677632  0.89579908  0.71666667  1.0
  Ti  Ti2560  1  0.02322368  0.08329908  0.75000000  1.0
  Ti  Ti2561  1  0.02322368  0.20829908  0.75000000  1.0
  Ti  Ti2562  1  0.02322368  0.33329908  0.75000000  1.0
  Ti  Ti2563  1  0.02322368  0.45829908  0.75000000  1.0
  Ti  Ti2564  1  0.02322368  0.58329908  0.75000000  1.0
  Ti  Ti2565  1  0.02322368  0.70829908  0.75000000  1.0
  Ti  Ti2566  1  0.02322368  0.83329908  0.75000000  1.0
  Ti  Ti2567  1  0.02322368  0.95829908  0.75000000  1.0
  Ti  Ti2568  1  0.12322368  0.08329908  0.75000000  1.0
  Ti  Ti2569  1  0.12322368  0.20829908  0.75000000  1.0
  Ti  Ti2570  1  0.12322368  0.33329908  0.75000000  1.0
  Ti  Ti2571  1  0.12322368  0.45829908  0.75000000  1.0
  Ti  Ti2572  1  0.12322368  0.58329908  0.75000000  1.0
  Ti  Ti2573  1  0.12322368  0.70829908  0.75000000  1.0
  Ti  Ti2574  1  0.12322368  0.83329908  0.75000000  1.0
  Ti  Ti2575  1  0.12322368  0.95829908  0.75000000  1.0
  Ti  Ti2576  1  0.22322368  0.08329908  0.75000000  1.0
  Ti  Ti2577  1  0.22322368  0.20829908  0.75000000  1.0
  Ti  Ti2578  1  0.22322368  0.33329908  0.75000000  1.0
  Ti  Ti2579  1  0.22322368  0.45829908  0.75000000  1.0
  Ti  Ti2580  1  0.22322368  0.58329908  0.75000000  1.0
  Ti  Ti2581  1  0.22322368  0.70829908  0.75000000  1.0
  Ti  Ti2582  1  0.22322368  0.83329908  0.75000000  1.0
  Ti  Ti2583  1  0.22322368  0.95829908  0.75000000  1.0
  Ti  Ti2584  1  0.32322368  0.08329908  0.75000000  1.0
  Ti  Ti2585  1  0.32322368  0.20829908  0.75000000  1.0
  Ti  Ti2586  1  0.32322368  0.33329908  0.75000000  1.0
  Ti  Ti2587  1  0.32322368  0.45829908  0.75000000  1.0
  Ti  Ti2588  1  0.32322368  0.58329908  0.75000000  1.0
  Ti  Ti2589  1  0.32322368  0.70829908  0.75000000  1.0
  Ti  Ti2590  1  0.32322368  0.83329908  0.75000000  1.0
  Ti  Ti2591  1  0.32322368  0.95829908  0.75000000  1.0
  Ti  Ti2592  1  0.42322368  0.08329908  0.75000000  1.0
  Ti  Ti2593  1  0.42322368  0.20829908  0.75000000  1.0
  Ti  Ti2594  1  0.42322368  0.33329908  0.75000000  1.0
  Ti  Ti2595  1  0.42322368  0.45829908  0.75000000  1.0
  Ti  Ti2596  1  0.42322368  0.58329908  0.75000000  1.0
  Ti  Ti2597  1  0.42322368  0.70829908  0.75000000  1.0
  Ti  Ti2598  1  0.42322368  0.83329908  0.75000000  1.0
  Ti  Ti2599  1  0.42322368  0.95829908  0.75000000  1.0
  Ti  Ti2600  1  0.52322368  0.08329908  0.75000000  1.0
  Ti  Ti2601  1  0.52322368  0.20829908  0.75000000  1.0
  Ti  Ti2602  1  0.52322368  0.33329908  0.75000000  1.0
  Ti  Ti2603  1  0.52322368  0.45829908  0.75000000  1.0
  Ti  Ti2604  1  0.52322368  0.58329908  0.75000000  1.0
  Ti  Ti2605  1  0.52322368  0.70829908  0.75000000  1.0
  Ti  Ti2606  1  0.52322368  0.83329908  0.75000000  1.0
  Ti  Ti2607  1  0.52322368  0.95829908  0.75000000  1.0
  Ti  Ti2608  1  0.62322368  0.08329908  0.75000000  1.0
  Ti  Ti2609  1  0.62322368  0.20829908  0.75000000  1.0
  Ti  Ti2610  1  0.62322368  0.33329908  0.75000000  1.0
  Ti  Ti2611  1  0.62322368  0.45829908  0.75000000  1.0
  Ti  Ti2612  1  0.62322368  0.58329908  0.75000000  1.0
  Ti  Ti2613  1  0.62322368  0.70829908  0.75000000  1.0
  Ti  Ti2614  1  0.62322368  0.83329908  0.75000000  1.0
  Ti  Ti2615  1  0.62322368  0.95829908  0.75000000  1.0
  Ti  Ti2616  1  0.72322368  0.08329908  0.75000000  1.0
  Ti  Ti2617  1  0.72322368  0.20829908  0.75000000  1.0
  Ti  Ti2618  1  0.72322368  0.33329908  0.75000000  1.0
  Ti  Ti2619  1  0.72322368  0.45829908  0.75000000  1.0
  Ti  Ti2620  1  0.72322368  0.58329908  0.75000000  1.0
  Ti  Ti2621  1  0.72322368  0.70829908  0.75000000  1.0
  Ti  Ti2622  1  0.72322368  0.83329908  0.75000000  1.0
  Ti  Ti2623  1  0.72322368  0.95829908  0.75000000  1.0
  Ti  Ti2624  1  0.82322368  0.08329908  0.75000000  1.0
  Ti  Ti2625  1  0.82322368  0.20829908  0.75000000  1.0
  Ti  Ti2626  1  0.82322368  0.33329908  0.75000000  1.0
  Ti  Ti2627  1  0.82322368  0.45829908  0.75000000  1.0
  Ti  Ti2628  1  0.82322368  0.58329908  0.75000000  1.0
  Ti  Ti2629  1  0.82322368  0.70829908  0.75000000  1.0
  Ti  Ti2630  1  0.82322368  0.83329908  0.75000000  1.0
  Ti  Ti2631  1  0.82322368  0.95829908  0.75000000  1.0
  Ti  Ti2632  1  0.92322368  0.08329908  0.75000000  1.0
  Ti  Ti2633  1  0.92322368  0.20829908  0.75000000  1.0
  Ti  Ti2634  1  0.92322368  0.33329908  0.75000000  1.0
  Ti  Ti2635  1  0.92322368  0.45829908  0.75000000  1.0
  Ti  Ti2636  1  0.92322368  0.58329908  0.75000000  1.0
  Ti  Ti2637  1  0.92322368  0.70829908  0.75000000  1.0
  Ti  Ti2638  1  0.92322368  0.83329908  0.75000000  1.0
  Ti  Ti2639  1  0.92322368  0.95829908  0.75000000  1.0
  Ti  Ti2640  1  0.07677632  0.04170092  0.78333333  1.0
  Ti  Ti2641  1  0.07677632  0.16670092  0.78333333  1.0
  Ti  Ti2642  1  0.07677632  0.29170092  0.78333333  1.0
  Ti  Ti2643  1  0.07677632  0.41670092  0.78333333  1.0
  Ti  Ti2644  1  0.07677632  0.54170092  0.78333333  1.0
  Ti  Ti2645  1  0.07677632  0.66670092  0.78333333  1.0
  Ti  Ti2646  1  0.07677632  0.79170092  0.78333333  1.0
  Ti  Ti2647  1  0.07677632  0.91670092  0.78333333  1.0
  Ti  Ti2648  1  0.17677632  0.04170092  0.78333333  1.0
  Ti  Ti2649  1  0.17677632  0.16670092  0.78333333  1.0
  Ti  Ti2650  1  0.17677632  0.29170092  0.78333333  1.0
  Ti  Ti2651  1  0.17677632  0.41670092  0.78333333  1.0
  Ti  Ti2652  1  0.17677632  0.54170092  0.78333333  1.0
  Ti  Ti2653  1  0.17677632  0.66670092  0.78333333  1.0
  Ti  Ti2654  1  0.17677632  0.79170092  0.78333333  1.0
  Ti  Ti2655  1  0.17677632  0.91670092  0.78333333  1.0
  Ti  Ti2656  1  0.27677632  0.04170092  0.78333333  1.0
  Ti  Ti2657  1  0.27677632  0.16670092  0.78333333  1.0
  Ti  Ti2658  1  0.27677632  0.29170092  0.78333333  1.0
  Ti  Ti2659  1  0.27677632  0.41670092  0.78333333  1.0
  Ti  Ti2660  1  0.27677632  0.54170092  0.78333333  1.0
  Ti  Ti2661  1  0.27677632  0.66670092  0.78333333  1.0
  Ti  Ti2662  1  0.27677632  0.79170092  0.78333333  1.0
  Ti  Ti2663  1  0.27677632  0.91670092  0.78333333  1.0
  Ti  Ti2664  1  0.37677632  0.04170092  0.78333333  1.0
  Ti  Ti2665  1  0.37677632  0.16670092  0.78333333  1.0
  Ti  Ti2666  1  0.37677632  0.29170092  0.78333333  1.0
  Ti  Ti2667  1  0.37677632  0.41670092  0.78333333  1.0
  Ti  Ti2668  1  0.37677632  0.54170092  0.78333333  1.0
  Ti  Ti2669  1  0.37677632  0.66670092  0.78333333  1.0
  Ti  Ti2670  1  0.37677632  0.79170092  0.78333333  1.0
  Ti  Ti2671  1  0.37677632  0.91670092  0.78333333  1.0
  Ti  Ti2672  1  0.47677632  0.04170092  0.78333333  1.0
  Ti  Ti2673  1  0.47677632  0.16670092  0.78333333  1.0
  Ti  Ti2674  1  0.47677632  0.29170092  0.78333333  1.0
  Ti  Ti2675  1  0.47677632  0.41670092  0.78333333  1.0
  Ti  Ti2676  1  0.47677632  0.54170092  0.78333333  1.0
  Ti  Ti2677  1  0.47677632  0.66670092  0.78333333  1.0
  Ti  Ti2678  1  0.47677632  0.79170092  0.78333333  1.0
  Ti  Ti2679  1  0.47677632  0.91670092  0.78333333  1.0
  Ti  Ti2680  1  0.57677632  0.04170092  0.78333333  1.0
  Ti  Ti2681  1  0.57677632  0.16670092  0.78333333  1.0
  Ti  Ti2682  1  0.57677632  0.29170092  0.78333333  1.0
  Ti  Ti2683  1  0.57677632  0.41670092  0.78333333  1.0
  Ti  Ti2684  1  0.57677632  0.54170092  0.78333333  1.0
  Ti  Ti2685  1  0.57677632  0.66670092  0.78333333  1.0
  Ti  Ti2686  1  0.57677632  0.79170092  0.78333333  1.0
  Ti  Ti2687  1  0.57677632  0.91670092  0.78333333  1.0
  Ti  Ti2688  1  0.67677632  0.04170092  0.78333333  1.0
  Ti  Ti2689  1  0.67677632  0.16670092  0.78333333  1.0
  Ti  Ti2690  1  0.67677632  0.29170092  0.78333333  1.0
  Ti  Ti2691  1  0.67677632  0.41670092  0.78333333  1.0
  Ti  Ti2692  1  0.67677632  0.54170092  0.78333333  1.0
  Ti  Ti2693  1  0.67677632  0.66670092  0.78333333  1.0
  Ti  Ti2694  1  0.67677632  0.79170092  0.78333333  1.0
  Ti  Ti2695  1  0.67677632  0.91670092  0.78333333  1.0
  Ti  Ti2696  1  0.77677632  0.04170092  0.78333333  1.0
  Ti  Ti2697  1  0.77677632  0.16670092  0.78333333  1.0
  Ti  Ti2698  1  0.77677632  0.29170092  0.78333333  1.0
  Ti  Ti2699  1  0.77677632  0.41670092  0.78333333  1.0
  Ti  Ti2700  1  0.77677632  0.54170092  0.78333333  1.0
  Ti  Ti2701  1  0.77677632  0.66670092  0.78333333  1.0
  Ti  Ti2702  1  0.77677632  0.79170092  0.78333333  1.0
  Ti  Ti2703  1  0.77677632  0.91670092  0.78333333  1.0
  Ti  Ti2704  1  0.87677632  0.04170092  0.78333333  1.0
  Ti  Ti2705  1  0.87677632  0.16670092  0.78333333  1.0
  Ti  Ti2706  1  0.87677632  0.29170092  0.78333333  1.0
  Ti  Ti2707  1  0.87677632  0.41670092  0.78333333  1.0
  Ti  Ti2708  1  0.87677632  0.54170092  0.78333333  1.0
  Ti  Ti2709  1  0.87677632  0.66670092  0.78333333  1.0
  Ti  Ti2710  1  0.87677632  0.79170092  0.78333333  1.0
  Ti  Ti2711  1  0.87677632  0.91670092  0.78333333  1.0
  Ti  Ti2712  1  0.97677632  0.04170092  0.78333333  1.0
  Ti  Ti2713  1  0.97677632  0.16670092  0.78333333  1.0
  Ti  Ti2714  1  0.97677632  0.29170092  0.78333333  1.0
  Ti  Ti2715  1  0.97677632  0.41670092  0.78333333  1.0
  Ti  Ti2716  1  0.97677632  0.54170092  0.78333333  1.0
  Ti  Ti2717  1  0.97677632  0.66670092  0.78333333  1.0
  Ti  Ti2718  1  0.97677632  0.79170092  0.78333333  1.0
  Ti  Ti2719  1  0.97677632  0.91670092  0.78333333  1.0
  Ti  Ti2720  1  0.07322368  0.10420092  0.75000000  1.0
  Ti  Ti2721  1  0.07322368  0.22920092  0.75000000  1.0
  Ti  Ti2722  1  0.07322368  0.35420092  0.75000000  1.0
  Ti  Ti2723  1  0.07322368  0.47920092  0.75000000  1.0
  Ti  Ti2724  1  0.07322368  0.60420092  0.75000000  1.0
  Ti  Ti2725  1  0.07322368  0.72920092  0.75000000  1.0
  Ti  Ti2726  1  0.07322368  0.85420092  0.75000000  1.0
  Ti  Ti2727  1  0.07322368  0.97920092  0.75000000  1.0
  Ti  Ti2728  1  0.17322368  0.10420092  0.75000000  1.0
  Ti  Ti2729  1  0.17322368  0.22920092  0.75000000  1.0
  Ti  Ti2730  1  0.17322368  0.35420092  0.75000000  1.0
  Ti  Ti2731  1  0.17322368  0.47920092  0.75000000  1.0
  Ti  Ti2732  1  0.17322368  0.60420092  0.75000000  1.0
  Ti  Ti2733  1  0.17322368  0.72920092  0.75000000  1.0
  Ti  Ti2734  1  0.17322368  0.85420092  0.75000000  1.0
  Ti  Ti2735  1  0.17322368  0.97920092  0.75000000  1.0
  Ti  Ti2736  1  0.27322368  0.10420092  0.75000000  1.0
  Ti  Ti2737  1  0.27322368  0.22920092  0.75000000  1.0
  Ti  Ti2738  1  0.27322368  0.35420092  0.75000000  1.0
  Ti  Ti2739  1  0.27322368  0.47920092  0.75000000  1.0
  Ti  Ti2740  1  0.27322368  0.60420092  0.75000000  1.0
  Ti  Ti2741  1  0.27322368  0.72920092  0.75000000  1.0
  Ti  Ti2742  1  0.27322368  0.85420092  0.75000000  1.0
  Ti  Ti2743  1  0.27322368  0.97920092  0.75000000  1.0
  Ti  Ti2744  1  0.37322368  0.10420092  0.75000000  1.0
  Ti  Ti2745  1  0.37322368  0.22920092  0.75000000  1.0
  Ti  Ti2746  1  0.37322368  0.35420092  0.75000000  1.0
  Ti  Ti2747  1  0.37322368  0.47920092  0.75000000  1.0
  Ti  Ti2748  1  0.37322368  0.60420092  0.75000000  1.0
  Ti  Ti2749  1  0.37322368  0.72920092  0.75000000  1.0
  Ti  Ti2750  1  0.37322368  0.85420092  0.75000000  1.0
  Ti  Ti2751  1  0.37322368  0.97920092  0.75000000  1.0
  Ti  Ti2752  1  0.47322368  0.10420092  0.75000000  1.0
  Ti  Ti2753  1  0.47322368  0.22920092  0.75000000  1.0
  Ti  Ti2754  1  0.47322368  0.35420092  0.75000000  1.0
  Ti  Ti2755  1  0.47322368  0.47920092  0.75000000  1.0
  Ti  Ti2756  1  0.47322368  0.60420092  0.75000000  1.0
  Ti  Ti2757  1  0.47322368  0.72920092  0.75000000  1.0
  Ti  Ti2758  1  0.47322368  0.85420092  0.75000000  1.0
  Ti  Ti2759  1  0.47322368  0.97920092  0.75000000  1.0
  Ti  Ti2760  1  0.57322368  0.10420092  0.75000000  1.0
  Ti  Ti2761  1  0.57322368  0.22920092  0.75000000  1.0
  Ti  Ti2762  1  0.57322368  0.35420092  0.75000000  1.0
  Ti  Ti2763  1  0.57322368  0.47920092  0.75000000  1.0
  Ti  Ti2764  1  0.57322368  0.60420092  0.75000000  1.0
  Ti  Ti2765  1  0.57322368  0.72920092  0.75000000  1.0
  Ti  Ti2766  1  0.57322368  0.85420092  0.75000000  1.0
  Ti  Ti2767  1  0.57322368  0.97920092  0.75000000  1.0
  Ti  Ti2768  1  0.67322368  0.10420092  0.75000000  1.0
  Ti  Ti2769  1  0.67322368  0.22920092  0.75000000  1.0
  Ti  Ti2770  1  0.67322368  0.35420092  0.75000000  1.0
  Ti  Ti2771  1  0.67322368  0.47920092  0.75000000  1.0
  Ti  Ti2772  1  0.67322368  0.60420092  0.75000000  1.0
  Ti  Ti2773  1  0.67322368  0.72920092  0.75000000  1.0
  Ti  Ti2774  1  0.67322368  0.85420092  0.75000000  1.0
  Ti  Ti2775  1  0.67322368  0.97920092  0.75000000  1.0
  Ti  Ti2776  1  0.77322368  0.10420092  0.75000000  1.0
  Ti  Ti2777  1  0.77322368  0.22920092  0.75000000  1.0
  Ti  Ti2778  1  0.77322368  0.35420092  0.75000000  1.0
  Ti  Ti2779  1  0.77322368  0.47920092  0.75000000  1.0
  Ti  Ti2780  1  0.77322368  0.60420092  0.75000000  1.0
  Ti  Ti2781  1  0.77322368  0.72920092  0.75000000  1.0
  Ti  Ti2782  1  0.77322368  0.85420092  0.75000000  1.0
  Ti  Ti2783  1  0.77322368  0.97920092  0.75000000  1.0
  Ti  Ti2784  1  0.87322368  0.10420092  0.75000000  1.0
  Ti  Ti2785  1  0.87322368  0.22920092  0.75000000  1.0
  Ti  Ti2786  1  0.87322368  0.35420092  0.75000000  1.0
  Ti  Ti2787  1  0.87322368  0.47920092  0.75000000  1.0
  Ti  Ti2788  1  0.87322368  0.60420092  0.75000000  1.0
  Ti  Ti2789  1  0.87322368  0.72920092  0.75000000  1.0
  Ti  Ti2790  1  0.87322368  0.85420092  0.75000000  1.0
  Ti  Ti2791  1  0.87322368  0.97920092  0.75000000  1.0
  Ti  Ti2792  1  0.97322368  0.10420092  0.75000000  1.0
  Ti  Ti2793  1  0.97322368  0.22920092  0.75000000  1.0
  Ti  Ti2794  1  0.97322368  0.35420092  0.75000000  1.0
  Ti  Ti2795  1  0.97322368  0.47920092  0.75000000  1.0
  Ti  Ti2796  1  0.97322368  0.60420092  0.75000000  1.0
  Ti  Ti2797  1  0.97322368  0.72920092  0.75000000  1.0
  Ti  Ti2798  1  0.97322368  0.85420092  0.75000000  1.0
  Ti  Ti2799  1  0.97322368  0.97920092  0.75000000  1.0
  Ti  Ti2800  1  0.02677632  0.02079908  0.78333333  1.0
  Ti  Ti2801  1  0.02677632  0.14579908  0.78333333  1.0
  Ti  Ti2802  1  0.02677632  0.27079908  0.78333333  1.0
  Ti  Ti2803  1  0.02677632  0.39579908  0.78333333  1.0
  Ti  Ti2804  1  0.02677632  0.52079908  0.78333333  1.0
  Ti  Ti2805  1  0.02677632  0.64579908  0.78333333  1.0
  Ti  Ti2806  1  0.02677632  0.77079908  0.78333333  1.0
  Ti  Ti2807  1  0.02677632  0.89579908  0.78333333  1.0
  Ti  Ti2808  1  0.12677632  0.02079908  0.78333333  1.0
  Ti  Ti2809  1  0.12677632  0.14579908  0.78333333  1.0
  Ti  Ti2810  1  0.12677632  0.27079908  0.78333333  1.0
  Ti  Ti2811  1  0.12677632  0.39579908  0.78333333  1.0
  Ti  Ti2812  1  0.12677632  0.52079908  0.78333333  1.0
  Ti  Ti2813  1  0.12677632  0.64579908  0.78333333  1.0
  Ti  Ti2814  1  0.12677632  0.77079908  0.78333333  1.0
  Ti  Ti2815  1  0.12677632  0.89579908  0.78333333  1.0
  Ti  Ti2816  1  0.22677632  0.02079908  0.78333333  1.0
  Ti  Ti2817  1  0.22677632  0.14579908  0.78333333  1.0
  Ti  Ti2818  1  0.22677632  0.27079908  0.78333333  1.0
  Ti  Ti2819  1  0.22677632  0.39579908  0.78333333  1.0
  Ti  Ti2820  1  0.22677632  0.52079908  0.78333333  1.0
  Ti  Ti2821  1  0.22677632  0.64579908  0.78333333  1.0
  Ti  Ti2822  1  0.22677632  0.77079908  0.78333333  1.0
  Ti  Ti2823  1  0.22677632  0.89579908  0.78333333  1.0
  Ti  Ti2824  1  0.32677632  0.02079908  0.78333333  1.0
  Ti  Ti2825  1  0.32677632  0.14579908  0.78333333  1.0
  Ti  Ti2826  1  0.32677632  0.27079908  0.78333333  1.0
  Ti  Ti2827  1  0.32677632  0.39579908  0.78333333  1.0
  Ti  Ti2828  1  0.32677632  0.52079908  0.78333333  1.0
  Ti  Ti2829  1  0.32677632  0.64579908  0.78333333  1.0
  Ti  Ti2830  1  0.32677632  0.77079908  0.78333333  1.0
  Ti  Ti2831  1  0.32677632  0.89579908  0.78333333  1.0
  Ti  Ti2832  1  0.42677632  0.02079908  0.78333333  1.0
  Ti  Ti2833  1  0.42677632  0.14579908  0.78333333  1.0
  Ti  Ti2834  1  0.42677632  0.27079908  0.78333333  1.0
  Ti  Ti2835  1  0.42677632  0.39579908  0.78333333  1.0
  Ti  Ti2836  1  0.42677632  0.52079908  0.78333333  1.0
  Ti  Ti2837  1  0.42677632  0.64579908  0.78333333  1.0
  Ti  Ti2838  1  0.42677632  0.77079908  0.78333333  1.0
  Ti  Ti2839  1  0.42677632  0.89579908  0.78333333  1.0
  Ti  Ti2840  1  0.52677632  0.02079908  0.78333333  1.0
  Ti  Ti2841  1  0.52677632  0.14579908  0.78333333  1.0
  Ti  Ti2842  1  0.52677632  0.27079908  0.78333333  1.0
  Ti  Ti2843  1  0.52677632  0.39579908  0.78333333  1.0
  Ti  Ti2844  1  0.52677632  0.52079908  0.78333333  1.0
  Ti  Ti2845  1  0.52677632  0.64579908  0.78333333  1.0
  Ti  Ti2846  1  0.52677632  0.77079908  0.78333333  1.0
  Ti  Ti2847  1  0.52677632  0.89579908  0.78333333  1.0
  Ti  Ti2848  1  0.62677632  0.02079908  0.78333333  1.0
  Ti  Ti2849  1  0.62677632  0.14579908  0.78333333  1.0
  Ti  Ti2850  1  0.62677632  0.27079908  0.78333333  1.0
  Ti  Ti2851  1  0.62677632  0.39579908  0.78333333  1.0
  Ti  Ti2852  1  0.62677632  0.52079908  0.78333333  1.0
  Ti  Ti2853  1  0.62677632  0.64579908  0.78333333  1.0
  Ti  Ti2854  1  0.62677632  0.77079908  0.78333333  1.0
  Ti  Ti2855  1  0.62677632  0.89579908  0.78333333  1.0
  Ti  Ti2856  1  0.72677632  0.02079908  0.78333333  1.0
  Ti  Ti2857  1  0.72677632  0.14579908  0.78333333  1.0
  Ti  Ti2858  1  0.72677632  0.27079908  0.78333333  1.0
  Ti  Ti2859  1  0.72677632  0.39579908  0.78333333  1.0
  Ti  Ti2860  1  0.72677632  0.52079908  0.78333333  1.0
  Ti  Ti2861  1  0.72677632  0.64579908  0.78333333  1.0
  Ti  Ti2862  1  0.72677632  0.77079908  0.78333333  1.0
  Ti  Ti2863  1  0.72677632  0.89579908  0.78333333  1.0
  Ti  Ti2864  1  0.82677632  0.02079908  0.78333333  1.0
  Ti  Ti2865  1  0.82677632  0.14579908  0.78333333  1.0
  Ti  Ti2866  1  0.82677632  0.27079908  0.78333333  1.0
  Ti  Ti2867  1  0.82677632  0.39579908  0.78333333  1.0
  Ti  Ti2868  1  0.82677632  0.52079908  0.78333333  1.0
  Ti  Ti2869  1  0.82677632  0.64579908  0.78333333  1.0
  Ti  Ti2870  1  0.82677632  0.77079908  0.78333333  1.0
  Ti  Ti2871  1  0.82677632  0.89579908  0.78333333  1.0
  Ti  Ti2872  1  0.92677632  0.02079908  0.78333333  1.0
  Ti  Ti2873  1  0.92677632  0.14579908  0.78333333  1.0
  Ti  Ti2874  1  0.92677632  0.27079908  0.78333333  1.0
  Ti  Ti2875  1  0.92677632  0.39579908  0.78333333  1.0
  Ti  Ti2876  1  0.92677632  0.52079908  0.78333333  1.0
  Ti  Ti2877  1  0.92677632  0.64579908  0.78333333  1.0
  Ti  Ti2878  1  0.92677632  0.77079908  0.78333333  1.0
  Ti  Ti2879  1  0.92677632  0.89579908  0.78333333  1.0
  P  P2880  1  0.05878854  0.01712191  0.21666667  1.0
  P  P2881  1  0.05878854  0.14212191  0.21666667  1.0
  P  P2882  1  0.05878854  0.26712191  0.21666667  1.0
  P  P2883  1  0.05878854  0.39212191  0.21666667  1.0
  P  P2884  1  0.05878854  0.51712191  0.21666667  1.0
  P  P2885  1  0.05878854  0.64212191  0.21666667  1.0
  P  P2886  1  0.05878854  0.76712191  0.21666667  1.0
  P  P2887  1  0.05878854  0.89212191  0.21666667  1.0
  P  P2888  1  0.15878854  0.01712191  0.21666667  1.0
  P  P2889  1  0.15878854  0.14212191  0.21666667  1.0
  P  P2890  1  0.15878854  0.26712191  0.21666667  1.0
  P  P2891  1  0.15878854  0.39212191  0.21666667  1.0
  P  P2892  1  0.15878854  0.51712191  0.21666667  1.0
  P  P2893  1  0.15878854  0.64212191  0.21666667  1.0
  P  P2894  1  0.15878854  0.76712191  0.21666667  1.0
  P  P2895  1  0.15878854  0.89212191  0.21666667  1.0
  P  P2896  1  0.25878854  0.01712191  0.21666667  1.0
  P  P2897  1  0.25878854  0.14212191  0.21666667  1.0
  P  P2898  1  0.25878854  0.26712191  0.21666667  1.0
  P  P2899  1  0.25878854  0.39212191  0.21666667  1.0
  P  P2900  1  0.25878854  0.51712191  0.21666667  1.0
  P  P2901  1  0.25878854  0.64212191  0.21666667  1.0
  P  P2902  1  0.25878854  0.76712191  0.21666667  1.0
  P  P2903  1  0.25878854  0.89212191  0.21666667  1.0
  P  P2904  1  0.35878854  0.01712191  0.21666667  1.0
  P  P2905  1  0.35878854  0.14212191  0.21666667  1.0
  P  P2906  1  0.35878854  0.26712191  0.21666667  1.0
  P  P2907  1  0.35878854  0.39212191  0.21666667  1.0
  P  P2908  1  0.35878854  0.51712191  0.21666667  1.0
  P  P2909  1  0.35878854  0.64212191  0.21666667  1.0
  P  P2910  1  0.35878854  0.76712191  0.21666667  1.0
  P  P2911  1  0.35878854  0.89212191  0.21666667  1.0
  P  P2912  1  0.45878854  0.01712191  0.21666667  1.0
  P  P2913  1  0.45878854  0.14212191  0.21666667  1.0
  P  P2914  1  0.45878854  0.26712191  0.21666667  1.0
  P  P2915  1  0.45878854  0.39212191  0.21666667  1.0
  P  P2916  1  0.45878854  0.51712191  0.21666667  1.0
  P  P2917  1  0.45878854  0.64212191  0.21666667  1.0
  P  P2918  1  0.45878854  0.76712191  0.21666667  1.0
  P  P2919  1  0.45878854  0.89212191  0.21666667  1.0
  P  P2920  1  0.55878854  0.01712191  0.21666667  1.0
  P  P2921  1  0.55878854  0.14212191  0.21666667  1.0
  P  P2922  1  0.55878854  0.26712191  0.21666667  1.0
  P  P2923  1  0.55878854  0.39212191  0.21666667  1.0
  P  P2924  1  0.55878854  0.51712191  0.21666667  1.0
  P  P2925  1  0.55878854  0.64212191  0.21666667  1.0
  P  P2926  1  0.55878854  0.76712191  0.21666667  1.0
  P  P2927  1  0.55878854  0.89212191  0.21666667  1.0
  P  P2928  1  0.65878854  0.01712191  0.21666667  1.0
  P  P2929  1  0.65878854  0.14212191  0.21666667  1.0
  P  P2930  1  0.65878854  0.26712191  0.21666667  1.0
  P  P2931  1  0.65878854  0.39212191  0.21666667  1.0
  P  P2932  1  0.65878854  0.51712191  0.21666667  1.0
  P  P2933  1  0.65878854  0.64212191  0.21666667  1.0
  P  P2934  1  0.65878854  0.76712191  0.21666667  1.0
  P  P2935  1  0.65878854  0.89212191  0.21666667  1.0
  P  P2936  1  0.75878854  0.01712191  0.21666667  1.0
  P  P2937  1  0.75878854  0.14212191  0.21666667  1.0
  P  P2938  1  0.75878854  0.26712191  0.21666667  1.0
  P  P2939  1  0.75878854  0.39212191  0.21666667  1.0
  P  P2940  1  0.75878854  0.51712191  0.21666667  1.0
  P  P2941  1  0.75878854  0.64212191  0.21666667  1.0
  P  P2942  1  0.75878854  0.76712191  0.21666667  1.0
  P  P2943  1  0.75878854  0.89212191  0.21666667  1.0
  P  P2944  1  0.85878854  0.01712191  0.21666667  1.0
  P  P2945  1  0.85878854  0.14212191  0.21666667  1.0
  P  P2946  1  0.85878854  0.26712191  0.21666667  1.0
  P  P2947  1  0.85878854  0.39212191  0.21666667  1.0
  P  P2948  1  0.85878854  0.51712191  0.21666667  1.0
  P  P2949  1  0.85878854  0.64212191  0.21666667  1.0
  P  P2950  1  0.85878854  0.76712191  0.21666667  1.0
  P  P2951  1  0.85878854  0.89212191  0.21666667  1.0
  P  P2952  1  0.95878854  0.01712191  0.21666667  1.0
  P  P2953  1  0.95878854  0.14212191  0.21666667  1.0
  P  P2954  1  0.95878854  0.26712191  0.21666667  1.0
  P  P2955  1  0.95878854  0.39212191  0.21666667  1.0
  P  P2956  1  0.95878854  0.51712191  0.21666667  1.0
  P  P2957  1  0.95878854  0.64212191  0.21666667  1.0
  P  P2958  1  0.95878854  0.76712191  0.21666667  1.0
  P  P2959  1  0.95878854  0.89212191  0.21666667  1.0
  P  P2960  1  0.04121146  0.10787809  0.25000000  1.0
  P  P2961  1  0.04121146  0.23287809  0.25000000  1.0
  P  P2962  1  0.04121146  0.35787809  0.25000000  1.0
  P  P2963  1  0.04121146  0.48287809  0.25000000  1.0
  P  P2964  1  0.04121146  0.60787809  0.25000000  1.0
  P  P2965  1  0.04121146  0.73287809  0.25000000  1.0
  P  P2966  1  0.04121146  0.85787809  0.25000000  1.0
  P  P2967  1  0.04121146  0.98287809  0.25000000  1.0
  P  P2968  1  0.14121146  0.10787809  0.25000000  1.0
  P  P2969  1  0.14121146  0.23287809  0.25000000  1.0
  P  P2970  1  0.14121146  0.35787809  0.25000000  1.0
  P  P2971  1  0.14121146  0.48287809  0.25000000  1.0
  P  P2972  1  0.14121146  0.60787809  0.25000000  1.0
  P  P2973  1  0.14121146  0.73287809  0.25000000  1.0
  P  P2974  1  0.14121146  0.85787809  0.25000000  1.0
  P  P2975  1  0.14121146  0.98287809  0.25000000  1.0
  P  P2976  1  0.24121146  0.10787809  0.25000000  1.0
  P  P2977  1  0.24121146  0.23287809  0.25000000  1.0
  P  P2978  1  0.24121146  0.35787809  0.25000000  1.0
  P  P2979  1  0.24121146  0.48287809  0.25000000  1.0
  P  P2980  1  0.24121146  0.60787809  0.25000000  1.0
  P  P2981  1  0.24121146  0.73287809  0.25000000  1.0
  P  P2982  1  0.24121146  0.85787809  0.25000000  1.0
  P  P2983  1  0.24121146  0.98287809  0.25000000  1.0
  P  P2984  1  0.34121146  0.10787809  0.25000000  1.0
  P  P2985  1  0.34121146  0.23287809  0.25000000  1.0
  P  P2986  1  0.34121146  0.35787809  0.25000000  1.0
  P  P2987  1  0.34121146  0.48287809  0.25000000  1.0
  P  P2988  1  0.34121146  0.60787809  0.25000000  1.0
  P  P2989  1  0.34121146  0.73287809  0.25000000  1.0
  P  P2990  1  0.34121146  0.85787809  0.25000000  1.0
  P  P2991  1  0.34121146  0.98287809  0.25000000  1.0
  P  P2992  1  0.44121146  0.10787809  0.25000000  1.0
  P  P2993  1  0.44121146  0.23287809  0.25000000  1.0
  P  P2994  1  0.44121146  0.35787809  0.25000000  1.0
  P  P2995  1  0.44121146  0.48287809  0.25000000  1.0
  P  P2996  1  0.44121146  0.60787809  0.25000000  1.0
  P  P2997  1  0.44121146  0.73287809  0.25000000  1.0
  P  P2998  1  0.44121146  0.85787809  0.25000000  1.0
  P  P2999  1  0.44121146  0.98287809  0.25000000  1.0
  P  P3000  1  0.54121146  0.10787809  0.25000000  1.0
  P  P3001  1  0.54121146  0.23287809  0.25000000  1.0
  P  P3002  1  0.54121146  0.35787809  0.25000000  1.0
  P  P3003  1  0.54121146  0.48287809  0.25000000  1.0
  P  P3004  1  0.54121146  0.60787809  0.25000000  1.0
  P  P3005  1  0.54121146  0.73287809  0.25000000  1.0
  P  P3006  1  0.54121146  0.85787809  0.25000000  1.0
  P  P3007  1  0.54121146  0.98287809  0.25000000  1.0
  P  P3008  1  0.64121146  0.10787809  0.25000000  1.0
  P  P3009  1  0.64121146  0.23287809  0.25000000  1.0
  P  P3010  1  0.64121146  0.35787809  0.25000000  1.0
  P  P3011  1  0.64121146  0.48287809  0.25000000  1.0
  P  P3012  1  0.64121146  0.60787809  0.25000000  1.0
  P  P3013  1  0.64121146  0.73287809  0.25000000  1.0
  P  P3014  1  0.64121146  0.85787809  0.25000000  1.0
  P  P3015  1  0.64121146  0.98287809  0.25000000  1.0
  P  P3016  1  0.74121146  0.10787809  0.25000000  1.0
  P  P3017  1  0.74121146  0.23287809  0.25000000  1.0
  P  P3018  1  0.74121146  0.35787809  0.25000000  1.0
  P  P3019  1  0.74121146  0.48287809  0.25000000  1.0
  P  P3020  1  0.74121146  0.60787809  0.25000000  1.0
  P  P3021  1  0.74121146  0.73287809  0.25000000  1.0
  P  P3022  1  0.74121146  0.85787809  0.25000000  1.0
  P  P3023  1  0.74121146  0.98287809  0.25000000  1.0
  P  P3024  1  0.84121146  0.10787809  0.25000000  1.0
  P  P3025  1  0.84121146  0.23287809  0.25000000  1.0
  P  P3026  1  0.84121146  0.35787809  0.25000000  1.0
  P  P3027  1  0.84121146  0.48287809  0.25000000  1.0
  P  P3028  1  0.84121146  0.60787809  0.25000000  1.0
  P  P3029  1  0.84121146  0.73287809  0.25000000  1.0
  P  P3030  1  0.84121146  0.85787809  0.25000000  1.0
  P  P3031  1  0.84121146  0.98287809  0.25000000  1.0
  P  P3032  1  0.94121146  0.10787809  0.25000000  1.0
  P  P3033  1  0.94121146  0.23287809  0.25000000  1.0
  P  P3034  1  0.94121146  0.35787809  0.25000000  1.0
  P  P3035  1  0.94121146  0.48287809  0.25000000  1.0
  P  P3036  1  0.94121146  0.60787809  0.25000000  1.0
  P  P3037  1  0.94121146  0.73287809  0.25000000  1.0
  P  P3038  1  0.94121146  0.85787809  0.25000000  1.0
  P  P3039  1  0.94121146  0.98287809  0.25000000  1.0
  P  P3040  1  0.00878854  0.04537809  0.21666667  1.0
  P  P3041  1  0.00878854  0.17037809  0.21666667  1.0
  P  P3042  1  0.00878854  0.29537809  0.21666667  1.0
  P  P3043  1  0.00878854  0.42037809  0.21666667  1.0
  P  P3044  1  0.00878854  0.54537809  0.21666667  1.0
  P  P3045  1  0.00878854  0.67037809  0.21666667  1.0
  P  P3046  1  0.00878854  0.79537809  0.21666667  1.0
  P  P3047  1  0.00878854  0.92037809  0.21666667  1.0
  P  P3048  1  0.10878854  0.04537809  0.21666667  1.0
  P  P3049  1  0.10878854  0.17037809  0.21666667  1.0
  P  P3050  1  0.10878854  0.29537809  0.21666667  1.0
  P  P3051  1  0.10878854  0.42037809  0.21666667  1.0
  P  P3052  1  0.10878854  0.54537809  0.21666667  1.0
  P  P3053  1  0.10878854  0.67037809  0.21666667  1.0
  P  P3054  1  0.10878854  0.79537809  0.21666667  1.0
  P  P3055  1  0.10878854  0.92037809  0.21666667  1.0
  P  P3056  1  0.20878854  0.04537809  0.21666667  1.0
  P  P3057  1  0.20878854  0.17037809  0.21666667  1.0
  P  P3058  1  0.20878854  0.29537809  0.21666667  1.0
  P  P3059  1  0.20878854  0.42037809  0.21666667  1.0
  P  P3060  1  0.20878854  0.54537809  0.21666667  1.0
  P  P3061  1  0.20878854  0.67037809  0.21666667  1.0
  P  P3062  1  0.20878854  0.79537809  0.21666667  1.0
  P  P3063  1  0.20878854  0.92037809  0.21666667  1.0
  P  P3064  1  0.30878854  0.04537809  0.21666667  1.0
  P  P3065  1  0.30878854  0.17037809  0.21666667  1.0
  P  P3066  1  0.30878854  0.29537809  0.21666667  1.0
  P  P3067  1  0.30878854  0.42037809  0.21666667  1.0
  P  P3068  1  0.30878854  0.54537809  0.21666667  1.0
  P  P3069  1  0.30878854  0.67037809  0.21666667  1.0
  P  P3070  1  0.30878854  0.79537809  0.21666667  1.0
  P  P3071  1  0.30878854  0.92037809  0.21666667  1.0
  P  P3072  1  0.40878854  0.04537809  0.21666667  1.0
  P  P3073  1  0.40878854  0.17037809  0.21666667  1.0
  P  P3074  1  0.40878854  0.29537809  0.21666667  1.0
  P  P3075  1  0.40878854  0.42037809  0.21666667  1.0
  P  P3076  1  0.40878854  0.54537809  0.21666667  1.0
  P  P3077  1  0.40878854  0.67037809  0.21666667  1.0
  P  P3078  1  0.40878854  0.79537809  0.21666667  1.0
  P  P3079  1  0.40878854  0.92037809  0.21666667  1.0
  P  P3080  1  0.50878854  0.04537809  0.21666667  1.0
  P  P3081  1  0.50878854  0.17037809  0.21666667  1.0
  P  P3082  1  0.50878854  0.29537809  0.21666667  1.0
  P  P3083  1  0.50878854  0.42037809  0.21666667  1.0
  P  P3084  1  0.50878854  0.54537809  0.21666667  1.0
  P  P3085  1  0.50878854  0.67037809  0.21666667  1.0
  P  P3086  1  0.50878854  0.79537809  0.21666667  1.0
  P  P3087  1  0.50878854  0.92037809  0.21666667  1.0
  P  P3088  1  0.60878854  0.04537809  0.21666667  1.0
  P  P3089  1  0.60878854  0.17037809  0.21666667  1.0
  P  P3090  1  0.60878854  0.29537809  0.21666667  1.0
  P  P3091  1  0.60878854  0.42037809  0.21666667  1.0
  P  P3092  1  0.60878854  0.54537809  0.21666667  1.0
  P  P3093  1  0.60878854  0.67037809  0.21666667  1.0
  P  P3094  1  0.60878854  0.79537809  0.21666667  1.0
  P  P3095  1  0.60878854  0.92037809  0.21666667  1.0
  P  P3096  1  0.70878854  0.04537809  0.21666667  1.0
  P  P3097  1  0.70878854  0.17037809  0.21666667  1.0
  P  P3098  1  0.70878854  0.29537809  0.21666667  1.0
  P  P3099  1  0.70878854  0.42037809  0.21666667  1.0
  P  P3100  1  0.70878854  0.54537809  0.21666667  1.0
  P  P3101  1  0.70878854  0.67037809  0.21666667  1.0
  P  P3102  1  0.70878854  0.79537809  0.21666667  1.0
  P  P3103  1  0.70878854  0.92037809  0.21666667  1.0
  P  P3104  1  0.80878854  0.04537809  0.21666667  1.0
  P  P3105  1  0.80878854  0.17037809  0.21666667  1.0
  P  P3106  1  0.80878854  0.29537809  0.21666667  1.0
  P  P3107  1  0.80878854  0.42037809  0.21666667  1.0
  P  P3108  1  0.80878854  0.54537809  0.21666667  1.0
  P  P3109  1  0.80878854  0.67037809  0.21666667  1.0
  P  P3110  1  0.80878854  0.79537809  0.21666667  1.0
  P  P3111  1  0.80878854  0.92037809  0.21666667  1.0
  P  P3112  1  0.90878854  0.04537809  0.21666667  1.0
  P  P3113  1  0.90878854  0.17037809  0.21666667  1.0
  P  P3114  1  0.90878854  0.29537809  0.21666667  1.0
  P  P3115  1  0.90878854  0.42037809  0.21666667  1.0
  P  P3116  1  0.90878854  0.54537809  0.21666667  1.0
  P  P3117  1  0.90878854  0.67037809  0.21666667  1.0
  P  P3118  1  0.90878854  0.79537809  0.21666667  1.0
  P  P3119  1  0.90878854  0.92037809  0.21666667  1.0
  P  P3120  1  0.09121146  0.07962191  0.25000000  1.0
  P  P3121  1  0.09121146  0.20462191  0.25000000  1.0
  P  P3122  1  0.09121146  0.32962191  0.25000000  1.0
  P  P3123  1  0.09121146  0.45462191  0.25000000  1.0
  P  P3124  1  0.09121146  0.57962191  0.25000000  1.0
  P  P3125  1  0.09121146  0.70462191  0.25000000  1.0
  P  P3126  1  0.09121146  0.82962191  0.25000000  1.0
  P  P3127  1  0.09121146  0.95462191  0.25000000  1.0
  P  P3128  1  0.19121146  0.07962191  0.25000000  1.0
  P  P3129  1  0.19121146  0.20462191  0.25000000  1.0
  P  P3130  1  0.19121146  0.32962191  0.25000000  1.0
  P  P3131  1  0.19121146  0.45462191  0.25000000  1.0
  P  P3132  1  0.19121146  0.57962191  0.25000000  1.0
  P  P3133  1  0.19121146  0.70462191  0.25000000  1.0
  P  P3134  1  0.19121146  0.82962191  0.25000000  1.0
  P  P3135  1  0.19121146  0.95462191  0.25000000  1.0
  P  P3136  1  0.29121146  0.07962191  0.25000000  1.0
  P  P3137  1  0.29121146  0.20462191  0.25000000  1.0
  P  P3138  1  0.29121146  0.32962191  0.25000000  1.0
  P  P3139  1  0.29121146  0.45462191  0.25000000  1.0
  P  P3140  1  0.29121146  0.57962191  0.25000000  1.0
  P  P3141  1  0.29121146  0.70462191  0.25000000  1.0
  P  P3142  1  0.29121146  0.82962191  0.25000000  1.0
  P  P3143  1  0.29121146  0.95462191  0.25000000  1.0
  P  P3144  1  0.39121146  0.07962191  0.25000000  1.0
  P  P3145  1  0.39121146  0.20462191  0.25000000  1.0
  P  P3146  1  0.39121146  0.32962191  0.25000000  1.0
  P  P3147  1  0.39121146  0.45462191  0.25000000  1.0
  P  P3148  1  0.39121146  0.57962191  0.25000000  1.0
  P  P3149  1  0.39121146  0.70462191  0.25000000  1.0
  P  P3150  1  0.39121146  0.82962191  0.25000000  1.0
  P  P3151  1  0.39121146  0.95462191  0.25000000  1.0
  P  P3152  1  0.49121146  0.07962191  0.25000000  1.0
  P  P3153  1  0.49121146  0.20462191  0.25000000  1.0
  P  P3154  1  0.49121146  0.32962191  0.25000000  1.0
  P  P3155  1  0.49121146  0.45462191  0.25000000  1.0
  P  P3156  1  0.49121146  0.57962191  0.25000000  1.0
  P  P3157  1  0.49121146  0.70462191  0.25000000  1.0
  P  P3158  1  0.49121146  0.82962191  0.25000000  1.0
  P  P3159  1  0.49121146  0.95462191  0.25000000  1.0
  P  P3160  1  0.59121146  0.07962191  0.25000000  1.0
  P  P3161  1  0.59121146  0.20462191  0.25000000  1.0
  P  P3162  1  0.59121146  0.32962191  0.25000000  1.0
  P  P3163  1  0.59121146  0.45462191  0.25000000  1.0
  P  P3164  1  0.59121146  0.57962191  0.25000000  1.0
  P  P3165  1  0.59121146  0.70462191  0.25000000  1.0
  P  P3166  1  0.59121146  0.82962191  0.25000000  1.0
  P  P3167  1  0.59121146  0.95462191  0.25000000  1.0
  P  P3168  1  0.69121146  0.07962191  0.25000000  1.0
  P  P3169  1  0.69121146  0.20462191  0.25000000  1.0
  P  P3170  1  0.69121146  0.32962191  0.25000000  1.0
  P  P3171  1  0.69121146  0.45462191  0.25000000  1.0
  P  P3172  1  0.69121146  0.57962191  0.25000000  1.0
  P  P3173  1  0.69121146  0.70462191  0.25000000  1.0
  P  P3174  1  0.69121146  0.82962191  0.25000000  1.0
  P  P3175  1  0.69121146  0.95462191  0.25000000  1.0
  P  P3176  1  0.79121146  0.07962191  0.25000000  1.0
  P  P3177  1  0.79121146  0.20462191  0.25000000  1.0
  P  P3178  1  0.79121146  0.32962191  0.25000000  1.0
  P  P3179  1  0.79121146  0.45462191  0.25000000  1.0
  P  P3180  1  0.79121146  0.57962191  0.25000000  1.0
  P  P3181  1  0.79121146  0.70462191  0.25000000  1.0
  P  P3182  1  0.79121146  0.82962191  0.25000000  1.0
  P  P3183  1  0.79121146  0.95462191  0.25000000  1.0
  P  P3184  1  0.89121146  0.07962191  0.25000000  1.0
  P  P3185  1  0.89121146  0.20462191  0.25000000  1.0
  P  P3186  1  0.89121146  0.32962191  0.25000000  1.0
  P  P3187  1  0.89121146  0.45462191  0.25000000  1.0
  P  P3188  1  0.89121146  0.57962191  0.25000000  1.0
  P  P3189  1  0.89121146  0.70462191  0.25000000  1.0
  P  P3190  1  0.89121146  0.82962191  0.25000000  1.0
  P  P3191  1  0.89121146  0.95462191  0.25000000  1.0
  P  P3192  1  0.99121146  0.07962191  0.25000000  1.0
  P  P3193  1  0.99121146  0.20462191  0.25000000  1.0
  P  P3194  1  0.99121146  0.32962191  0.25000000  1.0
  P  P3195  1  0.99121146  0.45462191  0.25000000  1.0
  P  P3196  1  0.99121146  0.57962191  0.25000000  1.0
  P  P3197  1  0.99121146  0.70462191  0.25000000  1.0
  P  P3198  1  0.99121146  0.82962191  0.25000000  1.0
  P  P3199  1  0.99121146  0.95462191  0.25000000  1.0
  P  P3200  1  0.08797251  0.00495577  0.25000000  1.0
  P  P3201  1  0.08797251  0.12995577  0.25000000  1.0
  P  P3202  1  0.08797251  0.25495577  0.25000000  1.0
  P  P3203  1  0.08797251  0.37995577  0.25000000  1.0
  P  P3204  1  0.08797251  0.50495577  0.25000000  1.0
  P  P3205  1  0.08797251  0.62995577  0.25000000  1.0
  P  P3206  1  0.08797251  0.75495577  0.25000000  1.0
  P  P3207  1  0.08797251  0.87995577  0.25000000  1.0
  P  P3208  1  0.18797251  0.00495577  0.25000000  1.0
  P  P3209  1  0.18797251  0.12995577  0.25000000  1.0
  P  P3210  1  0.18797251  0.25495577  0.25000000  1.0
  P  P3211  1  0.18797251  0.37995577  0.25000000  1.0
  P  P3212  1  0.18797251  0.50495577  0.25000000  1.0
  P  P3213  1  0.18797251  0.62995577  0.25000000  1.0
  P  P3214  1  0.18797251  0.75495577  0.25000000  1.0
  P  P3215  1  0.18797251  0.87995577  0.25000000  1.0
  P  P3216  1  0.28797251  0.00495577  0.25000000  1.0
  P  P3217  1  0.28797251  0.12995577  0.25000000  1.0
  P  P3218  1  0.28797251  0.25495577  0.25000000  1.0
  P  P3219  1  0.28797251  0.37995577  0.25000000  1.0
  P  P3220  1  0.28797251  0.50495577  0.25000000  1.0
  P  P3221  1  0.28797251  0.62995577  0.25000000  1.0
  P  P3222  1  0.28797251  0.75495577  0.25000000  1.0
  P  P3223  1  0.28797251  0.87995577  0.25000000  1.0
  P  P3224  1  0.38797251  0.00495577  0.25000000  1.0
  P  P3225  1  0.38797251  0.12995577  0.25000000  1.0
  P  P3226  1  0.38797251  0.25495577  0.25000000  1.0
  P  P3227  1  0.38797251  0.37995577  0.25000000  1.0
  P  P3228  1  0.38797251  0.50495577  0.25000000  1.0
  P  P3229  1  0.38797251  0.62995577  0.25000000  1.0
  P  P3230  1  0.38797251  0.75495577  0.25000000  1.0
  P  P3231  1  0.38797251  0.87995577  0.25000000  1.0
  P  P3232  1  0.48797251  0.00495577  0.25000000  1.0
  P  P3233  1  0.48797251  0.12995577  0.25000000  1.0
  P  P3234  1  0.48797251  0.25495577  0.25000000  1.0
  P  P3235  1  0.48797251  0.37995577  0.25000000  1.0
  P  P3236  1  0.48797251  0.50495577  0.25000000  1.0
  P  P3237  1  0.48797251  0.62995577  0.25000000  1.0
  P  P3238  1  0.48797251  0.75495577  0.25000000  1.0
  P  P3239  1  0.48797251  0.87995577  0.25000000  1.0
  P  P3240  1  0.58797251  0.00495577  0.25000000  1.0
  P  P3241  1  0.58797251  0.12995577  0.25000000  1.0
  P  P3242  1  0.58797251  0.25495577  0.25000000  1.0
  P  P3243  1  0.58797251  0.37995577  0.25000000  1.0
  P  P3244  1  0.58797251  0.50495577  0.25000000  1.0
  P  P3245  1  0.58797251  0.62995577  0.25000000  1.0
  P  P3246  1  0.58797251  0.75495577  0.25000000  1.0
  P  P3247  1  0.58797251  0.87995577  0.25000000  1.0
  P  P3248  1  0.68797251  0.00495577  0.25000000  1.0
  P  P3249  1  0.68797251  0.12995577  0.25000000  1.0
  P  P3250  1  0.68797251  0.25495577  0.25000000  1.0
  P  P3251  1  0.68797251  0.37995577  0.25000000  1.0
  P  P3252  1  0.68797251  0.50495577  0.25000000  1.0
  P  P3253  1  0.68797251  0.62995577  0.25000000  1.0
  P  P3254  1  0.68797251  0.75495577  0.25000000  1.0
  P  P3255  1  0.68797251  0.87995577  0.25000000  1.0
  P  P3256  1  0.78797251  0.00495577  0.25000000  1.0
  P  P3257  1  0.78797251  0.12995577  0.25000000  1.0
  P  P3258  1  0.78797251  0.25495577  0.25000000  1.0
  P  P3259  1  0.78797251  0.37995577  0.25000000  1.0
  P  P3260  1  0.78797251  0.50495577  0.25000000  1.0
  P  P3261  1  0.78797251  0.62995577  0.25000000  1.0
  P  P3262  1  0.78797251  0.75495577  0.25000000  1.0
  P  P3263  1  0.78797251  0.87995577  0.25000000  1.0
  P  P3264  1  0.88797251  0.00495577  0.25000000  1.0
  P  P3265  1  0.88797251  0.12995577  0.25000000  1.0
  P  P3266  1  0.88797251  0.25495577  0.25000000  1.0
  P  P3267  1  0.88797251  0.37995577  0.25000000  1.0
  P  P3268  1  0.88797251  0.50495577  0.25000000  1.0
  P  P3269  1  0.88797251  0.62995577  0.25000000  1.0
  P  P3270  1  0.88797251  0.75495577  0.25000000  1.0
  P  P3271  1  0.88797251  0.87995577  0.25000000  1.0
  P  P3272  1  0.98797251  0.00495577  0.25000000  1.0
  P  P3273  1  0.98797251  0.12995577  0.25000000  1.0
  P  P3274  1  0.98797251  0.25495577  0.25000000  1.0
  P  P3275  1  0.98797251  0.37995577  0.25000000  1.0
  P  P3276  1  0.98797251  0.50495577  0.25000000  1.0
  P  P3277  1  0.98797251  0.62995577  0.25000000  1.0
  P  P3278  1  0.98797251  0.75495577  0.25000000  1.0
  P  P3279  1  0.98797251  0.87995577  0.25000000  1.0
  P  P3280  1  0.01202749  0.12004423  0.21666667  1.0
  P  P3281  1  0.01202749  0.24504423  0.21666667  1.0
  P  P3282  1  0.01202749  0.37004423  0.21666667  1.0
  P  P3283  1  0.01202749  0.49504423  0.21666667  1.0
  P  P3284  1  0.01202749  0.62004423  0.21666667  1.0
  P  P3285  1  0.01202749  0.74504423  0.21666667  1.0
  P  P3286  1  0.01202749  0.87004423  0.21666667  1.0
  P  P3287  1  0.01202749  0.99504423  0.21666667  1.0
  P  P3288  1  0.11202749  0.12004423  0.21666667  1.0
  P  P3289  1  0.11202749  0.24504423  0.21666667  1.0
  P  P3290  1  0.11202749  0.37004423  0.21666667  1.0
  P  P3291  1  0.11202749  0.49504423  0.21666667  1.0
  P  P3292  1  0.11202749  0.62004423  0.21666667  1.0
  P  P3293  1  0.11202749  0.74504423  0.21666667  1.0
  P  P3294  1  0.11202749  0.87004423  0.21666667  1.0
  P  P3295  1  0.11202749  0.99504423  0.21666667  1.0
  P  P3296  1  0.21202749  0.12004423  0.21666667  1.0
  P  P3297  1  0.21202749  0.24504423  0.21666667  1.0
  P  P3298  1  0.21202749  0.37004423  0.21666667  1.0
  P  P3299  1  0.21202749  0.49504423  0.21666667  1.0
  P  P3300  1  0.21202749  0.62004423  0.21666667  1.0
  P  P3301  1  0.21202749  0.74504423  0.21666667  1.0
  P  P3302  1  0.21202749  0.87004423  0.21666667  1.0
  P  P3303  1  0.21202749  0.99504423  0.21666667  1.0
  P  P3304  1  0.31202749  0.12004423  0.21666667  1.0
  P  P3305  1  0.31202749  0.24504423  0.21666667  1.0
  P  P3306  1  0.31202749  0.37004423  0.21666667  1.0
  P  P3307  1  0.31202749  0.49504423  0.21666667  1.0
  P  P3308  1  0.31202749  0.62004423  0.21666667  1.0
  P  P3309  1  0.31202749  0.74504423  0.21666667  1.0
  P  P3310  1  0.31202749  0.87004423  0.21666667  1.0
  P  P3311  1  0.31202749  0.99504423  0.21666667  1.0
  P  P3312  1  0.41202749  0.12004423  0.21666667  1.0
  P  P3313  1  0.41202749  0.24504423  0.21666667  1.0
  P  P3314  1  0.41202749  0.37004423  0.21666667  1.0
  P  P3315  1  0.41202749  0.49504423  0.21666667  1.0
  P  P3316  1  0.41202749  0.62004423  0.21666667  1.0
  P  P3317  1  0.41202749  0.74504423  0.21666667  1.0
  P  P3318  1  0.41202749  0.87004423  0.21666667  1.0
  P  P3319  1  0.41202749  0.99504423  0.21666667  1.0
  P  P3320  1  0.51202749  0.12004423  0.21666667  1.0
  P  P3321  1  0.51202749  0.24504423  0.21666667  1.0
  P  P3322  1  0.51202749  0.37004423  0.21666667  1.0
  P  P3323  1  0.51202749  0.49504423  0.21666667  1.0
  P  P3324  1  0.51202749  0.62004423  0.21666667  1.0
  P  P3325  1  0.51202749  0.74504423  0.21666667  1.0
  P  P3326  1  0.51202749  0.87004423  0.21666667  1.0
  P  P3327  1  0.51202749  0.99504423  0.21666667  1.0
  P  P3328  1  0.61202749  0.12004423  0.21666667  1.0
  P  P3329  1  0.61202749  0.24504423  0.21666667  1.0
  P  P3330  1  0.61202749  0.37004423  0.21666667  1.0
  P  P3331  1  0.61202749  0.49504423  0.21666667  1.0
  P  P3332  1  0.61202749  0.62004423  0.21666667  1.0
  P  P3333  1  0.61202749  0.74504423  0.21666667  1.0
  P  P3334  1  0.61202749  0.87004423  0.21666667  1.0
  P  P3335  1  0.61202749  0.99504423  0.21666667  1.0
  P  P3336  1  0.71202749  0.12004423  0.21666667  1.0
  P  P3337  1  0.71202749  0.24504423  0.21666667  1.0
  P  P3338  1  0.71202749  0.37004423  0.21666667  1.0
  P  P3339  1  0.71202749  0.49504423  0.21666667  1.0
  P  P3340  1  0.71202749  0.62004423  0.21666667  1.0
  P  P3341  1  0.71202749  0.74504423  0.21666667  1.0
  P  P3342  1  0.71202749  0.87004423  0.21666667  1.0
  P  P3343  1  0.71202749  0.99504423  0.21666667  1.0
  P  P3344  1  0.81202749  0.12004423  0.21666667  1.0
  P  P3345  1  0.81202749  0.24504423  0.21666667  1.0
  P  P3346  1  0.81202749  0.37004423  0.21666667  1.0
  P  P3347  1  0.81202749  0.49504423  0.21666667  1.0
  P  P3348  1  0.81202749  0.62004423  0.21666667  1.0
  P  P3349  1  0.81202749  0.74504423  0.21666667  1.0
  P  P3350  1  0.81202749  0.87004423  0.21666667  1.0
  P  P3351  1  0.81202749  0.99504423  0.21666667  1.0
  P  P3352  1  0.91202749  0.12004423  0.21666667  1.0
  P  P3353  1  0.91202749  0.24504423  0.21666667  1.0
  P  P3354  1  0.91202749  0.37004423  0.21666667  1.0
  P  P3355  1  0.91202749  0.49504423  0.21666667  1.0
  P  P3356  1  0.91202749  0.62004423  0.21666667  1.0
  P  P3357  1  0.91202749  0.74504423  0.21666667  1.0
  P  P3358  1  0.91202749  0.87004423  0.21666667  1.0
  P  P3359  1  0.91202749  0.99504423  0.21666667  1.0
  P  P3360  1  0.03797251  0.05754423  0.25000000  1.0
  P  P3361  1  0.03797251  0.18254423  0.25000000  1.0
  P  P3362  1  0.03797251  0.30754423  0.25000000  1.0
  P  P3363  1  0.03797251  0.43254423  0.25000000  1.0
  P  P3364  1  0.03797251  0.55754423  0.25000000  1.0
  P  P3365  1  0.03797251  0.68254423  0.25000000  1.0
  P  P3366  1  0.03797251  0.80754423  0.25000000  1.0
  P  P3367  1  0.03797251  0.93254423  0.25000000  1.0
  P  P3368  1  0.13797251  0.05754423  0.25000000  1.0
  P  P3369  1  0.13797251  0.18254423  0.25000000  1.0
  P  P3370  1  0.13797251  0.30754423  0.25000000  1.0
  P  P3371  1  0.13797251  0.43254423  0.25000000  1.0
  P  P3372  1  0.13797251  0.55754423  0.25000000  1.0
  P  P3373  1  0.13797251  0.68254423  0.25000000  1.0
  P  P3374  1  0.13797251  0.80754423  0.25000000  1.0
  P  P3375  1  0.13797251  0.93254423  0.25000000  1.0
  P  P3376  1  0.23797251  0.05754423  0.25000000  1.0
  P  P3377  1  0.23797251  0.18254423  0.25000000  1.0
  P  P3378  1  0.23797251  0.30754423  0.25000000  1.0
  P  P3379  1  0.23797251  0.43254423  0.25000000  1.0
  P  P3380  1  0.23797251  0.55754423  0.25000000  1.0
  P  P3381  1  0.23797251  0.68254423  0.25000000  1.0
  P  P3382  1  0.23797251  0.80754423  0.25000000  1.0
  P  P3383  1  0.23797251  0.93254423  0.25000000  1.0
  P  P3384  1  0.33797251  0.05754423  0.25000000  1.0
  P  P3385  1  0.33797251  0.18254423  0.25000000  1.0
  P  P3386  1  0.33797251  0.30754423  0.25000000  1.0
  P  P3387  1  0.33797251  0.43254423  0.25000000  1.0
  P  P3388  1  0.33797251  0.55754423  0.25000000  1.0
  P  P3389  1  0.33797251  0.68254423  0.25000000  1.0
  P  P3390  1  0.33797251  0.80754423  0.25000000  1.0
  P  P3391  1  0.33797251  0.93254423  0.25000000  1.0
  P  P3392  1  0.43797251  0.05754423  0.25000000  1.0
  P  P3393  1  0.43797251  0.18254423  0.25000000  1.0
  P  P3394  1  0.43797251  0.30754423  0.25000000  1.0
  P  P3395  1  0.43797251  0.43254423  0.25000000  1.0
  P  P3396  1  0.43797251  0.55754423  0.25000000  1.0
  P  P3397  1  0.43797251  0.68254423  0.25000000  1.0
  P  P3398  1  0.43797251  0.80754423  0.25000000  1.0
  P  P3399  1  0.43797251  0.93254423  0.25000000  1.0
  P  P3400  1  0.53797251  0.05754423  0.25000000  1.0
  P  P3401  1  0.53797251  0.18254423  0.25000000  1.0
  P  P3402  1  0.53797251  0.30754423  0.25000000  1.0
  P  P3403  1  0.53797251  0.43254423  0.25000000  1.0
  P  P3404  1  0.53797251  0.55754423  0.25000000  1.0
  P  P3405  1  0.53797251  0.68254423  0.25000000  1.0
  P  P3406  1  0.53797251  0.80754423  0.25000000  1.0
  P  P3407  1  0.53797251  0.93254423  0.25000000  1.0
  P  P3408  1  0.63797251  0.05754423  0.25000000  1.0
  P  P3409  1  0.63797251  0.18254423  0.25000000  1.0
  P  P3410  1  0.63797251  0.30754423  0.25000000  1.0
  P  P3411  1  0.63797251  0.43254423  0.25000000  1.0
  P  P3412  1  0.63797251  0.55754423  0.25000000  1.0
  P  P3413  1  0.63797251  0.68254423  0.25000000  1.0
  P  P3414  1  0.63797251  0.80754423  0.25000000  1.0
  P  P3415  1  0.63797251  0.93254423  0.25000000  1.0
  P  P3416  1  0.73797251  0.05754423  0.25000000  1.0
  P  P3417  1  0.73797251  0.18254423  0.25000000  1.0
  P  P3418  1  0.73797251  0.30754423  0.25000000  1.0
  P  P3419  1  0.73797251  0.43254423  0.25000000  1.0
  P  P3420  1  0.73797251  0.55754423  0.25000000  1.0
  P  P3421  1  0.73797251  0.68254423  0.25000000  1.0
  P  P3422  1  0.73797251  0.80754423  0.25000000  1.0
  P  P3423  1  0.73797251  0.93254423  0.25000000  1.0
  P  P3424  1  0.83797251  0.05754423  0.25000000  1.0
  P  P3425  1  0.83797251  0.18254423  0.25000000  1.0
  P  P3426  1  0.83797251  0.30754423  0.25000000  1.0
  P  P3427  1  0.83797251  0.43254423  0.25000000  1.0
  P  P3428  1  0.83797251  0.55754423  0.25000000  1.0
  P  P3429  1  0.83797251  0.68254423  0.25000000  1.0
  P  P3430  1  0.83797251  0.80754423  0.25000000  1.0
  P  P3431  1  0.83797251  0.93254423  0.25000000  1.0
  P  P3432  1  0.93797251  0.05754423  0.25000000  1.0
  P  P3433  1  0.93797251  0.18254423  0.25000000  1.0
  P  P3434  1  0.93797251  0.30754423  0.25000000  1.0
  P  P3435  1  0.93797251  0.43254423  0.25000000  1.0
  P  P3436  1  0.93797251  0.55754423  0.25000000  1.0
  P  P3437  1  0.93797251  0.68254423  0.25000000  1.0
  P  P3438  1  0.93797251  0.80754423  0.25000000  1.0
  P  P3439  1  0.93797251  0.93254423  0.25000000  1.0
  P  P3440  1  0.06202749  0.06745577  0.21666667  1.0
  P  P3441  1  0.06202749  0.19245577  0.21666667  1.0
  P  P3442  1  0.06202749  0.31745577  0.21666667  1.0
  P  P3443  1  0.06202749  0.44245577  0.21666667  1.0
  P  P3444  1  0.06202749  0.56745577  0.21666667  1.0
  P  P3445  1  0.06202749  0.69245577  0.21666667  1.0
  P  P3446  1  0.06202749  0.81745577  0.21666667  1.0
  P  P3447  1  0.06202749  0.94245577  0.21666667  1.0
  P  P3448  1  0.16202749  0.06745577  0.21666667  1.0
  P  P3449  1  0.16202749  0.19245577  0.21666667  1.0
  P  P3450  1  0.16202749  0.31745577  0.21666667  1.0
  P  P3451  1  0.16202749  0.44245577  0.21666667  1.0
  P  P3452  1  0.16202749  0.56745577  0.21666667  1.0
  P  P3453  1  0.16202749  0.69245577  0.21666667  1.0
  P  P3454  1  0.16202749  0.81745577  0.21666667  1.0
  P  P3455  1  0.16202749  0.94245577  0.21666667  1.0
  P  P3456  1  0.26202749  0.06745577  0.21666667  1.0
  P  P3457  1  0.26202749  0.19245577  0.21666667  1.0
  P  P3458  1  0.26202749  0.31745577  0.21666667  1.0
  P  P3459  1  0.26202749  0.44245577  0.21666667  1.0
  P  P3460  1  0.26202749  0.56745577  0.21666667  1.0
  P  P3461  1  0.26202749  0.69245577  0.21666667  1.0
  P  P3462  1  0.26202749  0.81745577  0.21666667  1.0
  P  P3463  1  0.26202749  0.94245577  0.21666667  1.0
  P  P3464  1  0.36202749  0.06745577  0.21666667  1.0
  P  P3465  1  0.36202749  0.19245577  0.21666667  1.0
  P  P3466  1  0.36202749  0.31745577  0.21666667  1.0
  P  P3467  1  0.36202749  0.44245577  0.21666667  1.0
  P  P3468  1  0.36202749  0.56745577  0.21666667  1.0
  P  P3469  1  0.36202749  0.69245577  0.21666667  1.0
  P  P3470  1  0.36202749  0.81745577  0.21666667  1.0
  P  P3471  1  0.36202749  0.94245577  0.21666667  1.0
  P  P3472  1  0.46202749  0.06745577  0.21666667  1.0
  P  P3473  1  0.46202749  0.19245577  0.21666667  1.0
  P  P3474  1  0.46202749  0.31745577  0.21666667  1.0
  P  P3475  1  0.46202749  0.44245577  0.21666667  1.0
  P  P3476  1  0.46202749  0.56745577  0.21666667  1.0
  P  P3477  1  0.46202749  0.69245577  0.21666667  1.0
  P  P3478  1  0.46202749  0.81745577  0.21666667  1.0
  P  P3479  1  0.46202749  0.94245577  0.21666667  1.0
  P  P3480  1  0.56202749  0.06745577  0.21666667  1.0
  P  P3481  1  0.56202749  0.19245577  0.21666667  1.0
  P  P3482  1  0.56202749  0.31745577  0.21666667  1.0
  P  P3483  1  0.56202749  0.44245577  0.21666667  1.0
  P  P3484  1  0.56202749  0.56745577  0.21666667  1.0
  P  P3485  1  0.56202749  0.69245577  0.21666667  1.0
  P  P3486  1  0.56202749  0.81745577  0.21666667  1.0
  P  P3487  1  0.56202749  0.94245577  0.21666667  1.0
  P  P3488  1  0.66202749  0.06745577  0.21666667  1.0
  P  P3489  1  0.66202749  0.19245577  0.21666667  1.0
  P  P3490  1  0.66202749  0.31745577  0.21666667  1.0
  P  P3491  1  0.66202749  0.44245577  0.21666667  1.0
  P  P3492  1  0.66202749  0.56745577  0.21666667  1.0
  P  P3493  1  0.66202749  0.69245577  0.21666667  1.0
  P  P3494  1  0.66202749  0.81745577  0.21666667  1.0
  P  P3495  1  0.66202749  0.94245577  0.21666667  1.0
  P  P3496  1  0.76202749  0.06745577  0.21666667  1.0
  P  P3497  1  0.76202749  0.19245577  0.21666667  1.0
  P  P3498  1  0.76202749  0.31745577  0.21666667  1.0
  P  P3499  1  0.76202749  0.44245577  0.21666667  1.0
  P  P3500  1  0.76202749  0.56745577  0.21666667  1.0
  P  P3501  1  0.76202749  0.69245577  0.21666667  1.0
  P  P3502  1  0.76202749  0.81745577  0.21666667  1.0
  P  P3503  1  0.76202749  0.94245577  0.21666667  1.0
  P  P3504  1  0.86202749  0.06745577  0.21666667  1.0
  P  P3505  1  0.86202749  0.19245577  0.21666667  1.0
  P  P3506  1  0.86202749  0.31745577  0.21666667  1.0
  P  P3507  1  0.86202749  0.44245577  0.21666667  1.0
  P  P3508  1  0.86202749  0.56745577  0.21666667  1.0
  P  P3509  1  0.86202749  0.69245577  0.21666667  1.0
  P  P3510  1  0.86202749  0.81745577  0.21666667  1.0
  P  P3511  1  0.86202749  0.94245577  0.21666667  1.0
  P  P3512  1  0.96202749  0.06745577  0.21666667  1.0
  P  P3513  1  0.96202749  0.19245577  0.21666667  1.0
  P  P3514  1  0.96202749  0.31745577  0.21666667  1.0
  P  P3515  1  0.96202749  0.44245577  0.21666667  1.0
  P  P3516  1  0.96202749  0.56745577  0.21666667  1.0
  P  P3517  1  0.96202749  0.69245577  0.21666667  1.0
  P  P3518  1  0.96202749  0.81745577  0.21666667  1.0
  P  P3519  1  0.96202749  0.94245577  0.21666667  1.0
  P  P3520  1  0.05878854  0.01712191  0.28333333  1.0
  P  P3521  1  0.05878854  0.14212191  0.28333333  1.0
  P  P3522  1  0.05878854  0.26712191  0.28333333  1.0
  P  P3523  1  0.05878854  0.39212191  0.28333333  1.0
  P  P3524  1  0.05878854  0.51712191  0.28333333  1.0
  P  P3525  1  0.05878854  0.64212191  0.28333333  1.0
  P  P3526  1  0.05878854  0.76712191  0.28333333  1.0
  P  P3527  1  0.05878854  0.89212191  0.28333333  1.0
  P  P3528  1  0.15878854  0.01712191  0.28333333  1.0
  P  P3529  1  0.15878854  0.14212191  0.28333333  1.0
  P  P3530  1  0.15878854  0.26712191  0.28333333  1.0
  P  P3531  1  0.15878854  0.39212191  0.28333333  1.0
  P  P3532  1  0.15878854  0.51712191  0.28333333  1.0
  P  P3533  1  0.15878854  0.64212191  0.28333333  1.0
  P  P3534  1  0.15878854  0.76712191  0.28333333  1.0
  P  P3535  1  0.15878854  0.89212191  0.28333333  1.0
  P  P3536  1  0.25878854  0.01712191  0.28333333  1.0
  P  P3537  1  0.25878854  0.14212191  0.28333333  1.0
  P  P3538  1  0.25878854  0.26712191  0.28333333  1.0
  P  P3539  1  0.25878854  0.39212191  0.28333333  1.0
  P  P3540  1  0.25878854  0.51712191  0.28333333  1.0
  P  P3541  1  0.25878854  0.64212191  0.28333333  1.0
  P  P3542  1  0.25878854  0.76712191  0.28333333  1.0
  P  P3543  1  0.25878854  0.89212191  0.28333333  1.0
  P  P3544  1  0.35878854  0.01712191  0.28333333  1.0
  P  P3545  1  0.35878854  0.14212191  0.28333333  1.0
  P  P3546  1  0.35878854  0.26712191  0.28333333  1.0
  P  P3547  1  0.35878854  0.39212191  0.28333333  1.0
  P  P3548  1  0.35878854  0.51712191  0.28333333  1.0
  P  P3549  1  0.35878854  0.64212191  0.28333333  1.0
  P  P3550  1  0.35878854  0.76712191  0.28333333  1.0
  P  P3551  1  0.35878854  0.89212191  0.28333333  1.0
  P  P3552  1  0.45878854  0.01712191  0.28333333  1.0
  P  P3553  1  0.45878854  0.14212191  0.28333333  1.0
  P  P3554  1  0.45878854  0.26712191  0.28333333  1.0
  P  P3555  1  0.45878854  0.39212191  0.28333333  1.0
  P  P3556  1  0.45878854  0.51712191  0.28333333  1.0
  P  P3557  1  0.45878854  0.64212191  0.28333333  1.0
  P  P3558  1  0.45878854  0.76712191  0.28333333  1.0
  P  P3559  1  0.45878854  0.89212191  0.28333333  1.0
  P  P3560  1  0.55878854  0.01712191  0.28333333  1.0
  P  P3561  1  0.55878854  0.14212191  0.28333333  1.0
  P  P3562  1  0.55878854  0.26712191  0.28333333  1.0
  P  P3563  1  0.55878854  0.39212191  0.28333333  1.0
  P  P3564  1  0.55878854  0.51712191  0.28333333  1.0
  P  P3565  1  0.55878854  0.64212191  0.28333333  1.0
  P  P3566  1  0.55878854  0.76712191  0.28333333  1.0
  P  P3567  1  0.55878854  0.89212191  0.28333333  1.0
  P  P3568  1  0.65878854  0.01712191  0.28333333  1.0
  P  P3569  1  0.65878854  0.14212191  0.28333333  1.0
  P  P3570  1  0.65878854  0.26712191  0.28333333  1.0
  P  P3571  1  0.65878854  0.39212191  0.28333333  1.0
  P  P3572  1  0.65878854  0.51712191  0.28333333  1.0
  P  P3573  1  0.65878854  0.64212191  0.28333333  1.0
  P  P3574  1  0.65878854  0.76712191  0.28333333  1.0
  P  P3575  1  0.65878854  0.89212191  0.28333333  1.0
  P  P3576  1  0.75878854  0.01712191  0.28333333  1.0
  P  P3577  1  0.75878854  0.14212191  0.28333333  1.0
  P  P3578  1  0.75878854  0.26712191  0.28333333  1.0
  P  P3579  1  0.75878854  0.39212191  0.28333333  1.0
  P  P3580  1  0.75878854  0.51712191  0.28333333  1.0
  P  P3581  1  0.75878854  0.64212191  0.28333333  1.0
  P  P3582  1  0.75878854  0.76712191  0.28333333  1.0
  P  P3583  1  0.75878854  0.89212191  0.28333333  1.0
  P  P3584  1  0.85878854  0.01712191  0.28333333  1.0
  P  P3585  1  0.85878854  0.14212191  0.28333333  1.0
  P  P3586  1  0.85878854  0.26712191  0.28333333  1.0
  P  P3587  1  0.85878854  0.39212191  0.28333333  1.0
  P  P3588  1  0.85878854  0.51712191  0.28333333  1.0
  P  P3589  1  0.85878854  0.64212191  0.28333333  1.0
  P  P3590  1  0.85878854  0.76712191  0.28333333  1.0
  P  P3591  1  0.85878854  0.89212191  0.28333333  1.0
  P  P3592  1  0.95878854  0.01712191  0.28333333  1.0
  P  P3593  1  0.95878854  0.14212191  0.28333333  1.0
  P  P3594  1  0.95878854  0.26712191  0.28333333  1.0
  P  P3595  1  0.95878854  0.39212191  0.28333333  1.0
  P  P3596  1  0.95878854  0.51712191  0.28333333  1.0
  P  P3597  1  0.95878854  0.64212191  0.28333333  1.0
  P  P3598  1  0.95878854  0.76712191  0.28333333  1.0
  P  P3599  1  0.95878854  0.89212191  0.28333333  1.0
  P  P3600  1  0.04121146  0.10787809  0.31666667  1.0
  P  P3601  1  0.04121146  0.23287809  0.31666667  1.0
  P  P3602  1  0.04121146  0.35787809  0.31666667  1.0
  P  P3603  1  0.04121146  0.48287809  0.31666667  1.0
  P  P3604  1  0.04121146  0.60787809  0.31666667  1.0
  P  P3605  1  0.04121146  0.73287809  0.31666667  1.0
  P  P3606  1  0.04121146  0.85787809  0.31666667  1.0
  P  P3607  1  0.04121146  0.98287809  0.31666667  1.0
  P  P3608  1  0.14121146  0.10787809  0.31666667  1.0
  P  P3609  1  0.14121146  0.23287809  0.31666667  1.0
  P  P3610  1  0.14121146  0.35787809  0.31666667  1.0
  P  P3611  1  0.14121146  0.48287809  0.31666667  1.0
  P  P3612  1  0.14121146  0.60787809  0.31666667  1.0
  P  P3613  1  0.14121146  0.73287809  0.31666667  1.0
  P  P3614  1  0.14121146  0.85787809  0.31666667  1.0
  P  P3615  1  0.14121146  0.98287809  0.31666667  1.0
  P  P3616  1  0.24121146  0.10787809  0.31666667  1.0
  P  P3617  1  0.24121146  0.23287809  0.31666667  1.0
  P  P3618  1  0.24121146  0.35787809  0.31666667  1.0
  P  P3619  1  0.24121146  0.48287809  0.31666667  1.0
  P  P3620  1  0.24121146  0.60787809  0.31666667  1.0
  P  P3621  1  0.24121146  0.73287809  0.31666667  1.0
  P  P3622  1  0.24121146  0.85787809  0.31666667  1.0
  P  P3623  1  0.24121146  0.98287809  0.31666667  1.0
  P  P3624  1  0.34121146  0.10787809  0.31666667  1.0
  P  P3625  1  0.34121146  0.23287809  0.31666667  1.0
  P  P3626  1  0.34121146  0.35787809  0.31666667  1.0
  P  P3627  1  0.34121146  0.48287809  0.31666667  1.0
  P  P3628  1  0.34121146  0.60787809  0.31666667  1.0
  P  P3629  1  0.34121146  0.73287809  0.31666667  1.0
  P  P3630  1  0.34121146  0.85787809  0.31666667  1.0
  P  P3631  1  0.34121146  0.98287809  0.31666667  1.0
  P  P3632  1  0.44121146  0.10787809  0.31666667  1.0
  P  P3633  1  0.44121146  0.23287809  0.31666667  1.0
  P  P3634  1  0.44121146  0.35787809  0.31666667  1.0
  P  P3635  1  0.44121146  0.48287809  0.31666667  1.0
  P  P3636  1  0.44121146  0.60787809  0.31666667  1.0
  P  P3637  1  0.44121146  0.73287809  0.31666667  1.0
  P  P3638  1  0.44121146  0.85787809  0.31666667  1.0
  P  P3639  1  0.44121146  0.98287809  0.31666667  1.0
  P  P3640  1  0.54121146  0.10787809  0.31666667  1.0
  P  P3641  1  0.54121146  0.23287809  0.31666667  1.0
  P  P3642  1  0.54121146  0.35787809  0.31666667  1.0
  P  P3643  1  0.54121146  0.48287809  0.31666667  1.0
  P  P3644  1  0.54121146  0.60787809  0.31666667  1.0
  P  P3645  1  0.54121146  0.73287809  0.31666667  1.0
  P  P3646  1  0.54121146  0.85787809  0.31666667  1.0
  P  P3647  1  0.54121146  0.98287809  0.31666667  1.0
  P  P3648  1  0.64121146  0.10787809  0.31666667  1.0
  P  P3649  1  0.64121146  0.23287809  0.31666667  1.0
  P  P3650  1  0.64121146  0.35787809  0.31666667  1.0
  P  P3651  1  0.64121146  0.48287809  0.31666667  1.0
  P  P3652  1  0.64121146  0.60787809  0.31666667  1.0
  P  P3653  1  0.64121146  0.73287809  0.31666667  1.0
  P  P3654  1  0.64121146  0.85787809  0.31666667  1.0
  P  P3655  1  0.64121146  0.98287809  0.31666667  1.0
  P  P3656  1  0.74121146  0.10787809  0.31666667  1.0
  P  P3657  1  0.74121146  0.23287809  0.31666667  1.0
  P  P3658  1  0.74121146  0.35787809  0.31666667  1.0
  P  P3659  1  0.74121146  0.48287809  0.31666667  1.0
  P  P3660  1  0.74121146  0.60787809  0.31666667  1.0
  P  P3661  1  0.74121146  0.73287809  0.31666667  1.0
  P  P3662  1  0.74121146  0.85787809  0.31666667  1.0
  P  P3663  1  0.74121146  0.98287809  0.31666667  1.0
  P  P3664  1  0.84121146  0.10787809  0.31666667  1.0
  P  P3665  1  0.84121146  0.23287809  0.31666667  1.0
  P  P3666  1  0.84121146  0.35787809  0.31666667  1.0
  P  P3667  1  0.84121146  0.48287809  0.31666667  1.0
  P  P3668  1  0.84121146  0.60787809  0.31666667  1.0
  P  P3669  1  0.84121146  0.73287809  0.31666667  1.0
  P  P3670  1  0.84121146  0.85787809  0.31666667  1.0
  P  P3671  1  0.84121146  0.98287809  0.31666667  1.0
  P  P3672  1  0.94121146  0.10787809  0.31666667  1.0
  P  P3673  1  0.94121146  0.23287809  0.31666667  1.0
  P  P3674  1  0.94121146  0.35787809  0.31666667  1.0
  P  P3675  1  0.94121146  0.48287809  0.31666667  1.0
  P  P3676  1  0.94121146  0.60787809  0.31666667  1.0
  P  P3677  1  0.94121146  0.73287809  0.31666667  1.0
  P  P3678  1  0.94121146  0.85787809  0.31666667  1.0
  P  P3679  1  0.94121146  0.98287809  0.31666667  1.0
  P  P3680  1  0.00878854  0.04537809  0.28333333  1.0
  P  P3681  1  0.00878854  0.17037809  0.28333333  1.0
  P  P3682  1  0.00878854  0.29537809  0.28333333  1.0
  P  P3683  1  0.00878854  0.42037809  0.28333333  1.0
  P  P3684  1  0.00878854  0.54537809  0.28333333  1.0
  P  P3685  1  0.00878854  0.67037809  0.28333333  1.0
  P  P3686  1  0.00878854  0.79537809  0.28333333  1.0
  P  P3687  1  0.00878854  0.92037809  0.28333333  1.0
  P  P3688  1  0.10878854  0.04537809  0.28333333  1.0
  P  P3689  1  0.10878854  0.17037809  0.28333333  1.0
  P  P3690  1  0.10878854  0.29537809  0.28333333  1.0
  P  P3691  1  0.10878854  0.42037809  0.28333333  1.0
  P  P3692  1  0.10878854  0.54537809  0.28333333  1.0
  P  P3693  1  0.10878854  0.67037809  0.28333333  1.0
  P  P3694  1  0.10878854  0.79537809  0.28333333  1.0
  P  P3695  1  0.10878854  0.92037809  0.28333333  1.0
  P  P3696  1  0.20878854  0.04537809  0.28333333  1.0
  P  P3697  1  0.20878854  0.17037809  0.28333333  1.0
  P  P3698  1  0.20878854  0.29537809  0.28333333  1.0
  P  P3699  1  0.20878854  0.42037809  0.28333333  1.0
  P  P3700  1  0.20878854  0.54537809  0.28333333  1.0
  P  P3701  1  0.20878854  0.67037809  0.28333333  1.0
  P  P3702  1  0.20878854  0.79537809  0.28333333  1.0
  P  P3703  1  0.20878854  0.92037809  0.28333333  1.0
  P  P3704  1  0.30878854  0.04537809  0.28333333  1.0
  P  P3705  1  0.30878854  0.17037809  0.28333333  1.0
  P  P3706  1  0.30878854  0.29537809  0.28333333  1.0
  P  P3707  1  0.30878854  0.42037809  0.28333333  1.0
  P  P3708  1  0.30878854  0.54537809  0.28333333  1.0
  P  P3709  1  0.30878854  0.67037809  0.28333333  1.0
  P  P3710  1  0.30878854  0.79537809  0.28333333  1.0
  P  P3711  1  0.30878854  0.92037809  0.28333333  1.0
  P  P3712  1  0.40878854  0.04537809  0.28333333  1.0
  P  P3713  1  0.40878854  0.17037809  0.28333333  1.0
  P  P3714  1  0.40878854  0.29537809  0.28333333  1.0
  P  P3715  1  0.40878854  0.42037809  0.28333333  1.0
  P  P3716  1  0.40878854  0.54537809  0.28333333  1.0
  P  P3717  1  0.40878854  0.67037809  0.28333333  1.0
  P  P3718  1  0.40878854  0.79537809  0.28333333  1.0
  P  P3719  1  0.40878854  0.92037809  0.28333333  1.0
  P  P3720  1  0.50878854  0.04537809  0.28333333  1.0
  P  P3721  1  0.50878854  0.17037809  0.28333333  1.0
  P  P3722  1  0.50878854  0.29537809  0.28333333  1.0
  P  P3723  1  0.50878854  0.42037809  0.28333333  1.0
  P  P3724  1  0.50878854  0.54537809  0.28333333  1.0
  P  P3725  1  0.50878854  0.67037809  0.28333333  1.0
  P  P3726  1  0.50878854  0.79537809  0.28333333  1.0
  P  P3727  1  0.50878854  0.92037809  0.28333333  1.0
  P  P3728  1  0.60878854  0.04537809  0.28333333  1.0
  P  P3729  1  0.60878854  0.17037809  0.28333333  1.0
  P  P3730  1  0.60878854  0.29537809  0.28333333  1.0
  P  P3731  1  0.60878854  0.42037809  0.28333333  1.0
  P  P3732  1  0.60878854  0.54537809  0.28333333  1.0
  P  P3733  1  0.60878854  0.67037809  0.28333333  1.0
  P  P3734  1  0.60878854  0.79537809  0.28333333  1.0
  P  P3735  1  0.60878854  0.92037809  0.28333333  1.0
  P  P3736  1  0.70878854  0.04537809  0.28333333  1.0
  P  P3737  1  0.70878854  0.17037809  0.28333333  1.0
  P  P3738  1  0.70878854  0.29537809  0.28333333  1.0
  P  P3739  1  0.70878854  0.42037809  0.28333333  1.0
  P  P3740  1  0.70878854  0.54537809  0.28333333  1.0
  P  P3741  1  0.70878854  0.67037809  0.28333333  1.0
  P  P3742  1  0.70878854  0.79537809  0.28333333  1.0
  P  P3743  1  0.70878854  0.92037809  0.28333333  1.0
  P  P3744  1  0.80878854  0.04537809  0.28333333  1.0
  P  P3745  1  0.80878854  0.17037809  0.28333333  1.0
  P  P3746  1  0.80878854  0.29537809  0.28333333  1.0
  P  P3747  1  0.80878854  0.42037809  0.28333333  1.0
  P  P3748  1  0.80878854  0.54537809  0.28333333  1.0
  P  P3749  1  0.80878854  0.67037809  0.28333333  1.0
  P  P3750  1  0.80878854  0.79537809  0.28333333  1.0
  P  P3751  1  0.80878854  0.92037809  0.28333333  1.0
  P  P3752  1  0.90878854  0.04537809  0.28333333  1.0
  P  P3753  1  0.90878854  0.17037809  0.28333333  1.0
  P  P3754  1  0.90878854  0.29537809  0.28333333  1.0
  P  P3755  1  0.90878854  0.42037809  0.28333333  1.0
  P  P3756  1  0.90878854  0.54537809  0.28333333  1.0
  P  P3757  1  0.90878854  0.67037809  0.28333333  1.0
  P  P3758  1  0.90878854  0.79537809  0.28333333  1.0
  P  P3759  1  0.90878854  0.92037809  0.28333333  1.0
  P  P3760  1  0.09121146  0.07962191  0.31666667  1.0
  P  P3761  1  0.09121146  0.20462191  0.31666667  1.0
  P  P3762  1  0.09121146  0.32962191  0.31666667  1.0
  P  P3763  1  0.09121146  0.45462191  0.31666667  1.0
  P  P3764  1  0.09121146  0.57962191  0.31666667  1.0
  P  P3765  1  0.09121146  0.70462191  0.31666667  1.0
  P  P3766  1  0.09121146  0.82962191  0.31666667  1.0
  P  P3767  1  0.09121146  0.95462191  0.31666667  1.0
  P  P3768  1  0.19121146  0.07962191  0.31666667  1.0
  P  P3769  1  0.19121146  0.20462191  0.31666667  1.0
  P  P3770  1  0.19121146  0.32962191  0.31666667  1.0
  P  P3771  1  0.19121146  0.45462191  0.31666667  1.0
  P  P3772  1  0.19121146  0.57962191  0.31666667  1.0
  P  P3773  1  0.19121146  0.70462191  0.31666667  1.0
  P  P3774  1  0.19121146  0.82962191  0.31666667  1.0
  P  P3775  1  0.19121146  0.95462191  0.31666667  1.0
  P  P3776  1  0.29121146  0.07962191  0.31666667  1.0
  P  P3777  1  0.29121146  0.20462191  0.31666667  1.0
  P  P3778  1  0.29121146  0.32962191  0.31666667  1.0
  P  P3779  1  0.29121146  0.45462191  0.31666667  1.0
  P  P3780  1  0.29121146  0.57962191  0.31666667  1.0
  P  P3781  1  0.29121146  0.70462191  0.31666667  1.0
  P  P3782  1  0.29121146  0.82962191  0.31666667  1.0
  P  P3783  1  0.29121146  0.95462191  0.31666667  1.0
  P  P3784  1  0.39121146  0.07962191  0.31666667  1.0
  P  P3785  1  0.39121146  0.20462191  0.31666667  1.0
  P  P3786  1  0.39121146  0.32962191  0.31666667  1.0
  P  P3787  1  0.39121146  0.45462191  0.31666667  1.0
  P  P3788  1  0.39121146  0.57962191  0.31666667  1.0
  P  P3789  1  0.39121146  0.70462191  0.31666667  1.0
  P  P3790  1  0.39121146  0.82962191  0.31666667  1.0
  P  P3791  1  0.39121146  0.95462191  0.31666667  1.0
  P  P3792  1  0.49121146  0.07962191  0.31666667  1.0
  P  P3793  1  0.49121146  0.20462191  0.31666667  1.0
  P  P3794  1  0.49121146  0.32962191  0.31666667  1.0
  P  P3795  1  0.49121146  0.45462191  0.31666667  1.0
  P  P3796  1  0.49121146  0.57962191  0.31666667  1.0
  P  P3797  1  0.49121146  0.70462191  0.31666667  1.0
  P  P3798  1  0.49121146  0.82962191  0.31666667  1.0
  P  P3799  1  0.49121146  0.95462191  0.31666667  1.0
  P  P3800  1  0.59121146  0.07962191  0.31666667  1.0
  P  P3801  1  0.59121146  0.20462191  0.31666667  1.0
  P  P3802  1  0.59121146  0.32962191  0.31666667  1.0
  P  P3803  1  0.59121146  0.45462191  0.31666667  1.0
  P  P3804  1  0.59121146  0.57962191  0.31666667  1.0
  P  P3805  1  0.59121146  0.70462191  0.31666667  1.0
  P  P3806  1  0.59121146  0.82962191  0.31666667  1.0
  P  P3807  1  0.59121146  0.95462191  0.31666667  1.0
  P  P3808  1  0.69121146  0.07962191  0.31666667  1.0
  P  P3809  1  0.69121146  0.20462191  0.31666667  1.0
  P  P3810  1  0.69121146  0.32962191  0.31666667  1.0
  P  P3811  1  0.69121146  0.45462191  0.31666667  1.0
  P  P3812  1  0.69121146  0.57962191  0.31666667  1.0
  P  P3813  1  0.69121146  0.70462191  0.31666667  1.0
  P  P3814  1  0.69121146  0.82962191  0.31666667  1.0
  P  P3815  1  0.69121146  0.95462191  0.31666667  1.0
  P  P3816  1  0.79121146  0.07962191  0.31666667  1.0
  P  P3817  1  0.79121146  0.20462191  0.31666667  1.0
  P  P3818  1  0.79121146  0.32962191  0.31666667  1.0
  P  P3819  1  0.79121146  0.45462191  0.31666667  1.0
  P  P3820  1  0.79121146  0.57962191  0.31666667  1.0
  P  P3821  1  0.79121146  0.70462191  0.31666667  1.0
  P  P3822  1  0.79121146  0.82962191  0.31666667  1.0
  P  P3823  1  0.79121146  0.95462191  0.31666667  1.0
  P  P3824  1  0.89121146  0.07962191  0.31666667  1.0
  P  P3825  1  0.89121146  0.20462191  0.31666667  1.0
  P  P3826  1  0.89121146  0.32962191  0.31666667  1.0
  P  P3827  1  0.89121146  0.45462191  0.31666667  1.0
  P  P3828  1  0.89121146  0.57962191  0.31666667  1.0
  P  P3829  1  0.89121146  0.70462191  0.31666667  1.0
  P  P3830  1  0.89121146  0.82962191  0.31666667  1.0
  P  P3831  1  0.89121146  0.95462191  0.31666667  1.0
  P  P3832  1  0.99121146  0.07962191  0.31666667  1.0
  P  P3833  1  0.99121146  0.20462191  0.31666667  1.0
  P  P3834  1  0.99121146  0.32962191  0.31666667  1.0
  P  P3835  1  0.99121146  0.45462191  0.31666667  1.0
  P  P3836  1  0.99121146  0.57962191  0.31666667  1.0
  P  P3837  1  0.99121146  0.70462191  0.31666667  1.0
  P  P3838  1  0.99121146  0.82962191  0.31666667  1.0
  P  P3839  1  0.99121146  0.95462191  0.31666667  1.0
  P  P3840  1  0.08797251  0.00495577  0.31666667  1.0
  P  P3841  1  0.08797251  0.12995577  0.31666667  1.0
  P  P3842  1  0.08797251  0.25495577  0.31666667  1.0
  P  P3843  1  0.08797251  0.37995577  0.31666667  1.0
  P  P3844  1  0.08797251  0.50495577  0.31666667  1.0
  P  P3845  1  0.08797251  0.62995577  0.31666667  1.0
  P  P3846  1  0.08797251  0.75495577  0.31666667  1.0
  P  P3847  1  0.08797251  0.87995577  0.31666667  1.0
  P  P3848  1  0.18797251  0.00495577  0.31666667  1.0
  P  P3849  1  0.18797251  0.12995577  0.31666667  1.0
  P  P3850  1  0.18797251  0.25495577  0.31666667  1.0
  P  P3851  1  0.18797251  0.37995577  0.31666667  1.0
  P  P3852  1  0.18797251  0.50495577  0.31666667  1.0
  P  P3853  1  0.18797251  0.62995577  0.31666667  1.0
  P  P3854  1  0.18797251  0.75495577  0.31666667  1.0
  P  P3855  1  0.18797251  0.87995577  0.31666667  1.0
  P  P3856  1  0.28797251  0.00495577  0.31666667  1.0
  P  P3857  1  0.28797251  0.12995577  0.31666667  1.0
  P  P3858  1  0.28797251  0.25495577  0.31666667  1.0
  P  P3859  1  0.28797251  0.37995577  0.31666667  1.0
  P  P3860  1  0.28797251  0.50495577  0.31666667  1.0
  P  P3861  1  0.28797251  0.62995577  0.31666667  1.0
  P  P3862  1  0.28797251  0.75495577  0.31666667  1.0
  P  P3863  1  0.28797251  0.87995577  0.31666667  1.0
  P  P3864  1  0.38797251  0.00495577  0.31666667  1.0
  P  P3865  1  0.38797251  0.12995577  0.31666667  1.0
  P  P3866  1  0.38797251  0.25495577  0.31666667  1.0
  P  P3867  1  0.38797251  0.37995577  0.31666667  1.0
  P  P3868  1  0.38797251  0.50495577  0.31666667  1.0
  P  P3869  1  0.38797251  0.62995577  0.31666667  1.0
  P  P3870  1  0.38797251  0.75495577  0.31666667  1.0
  P  P3871  1  0.38797251  0.87995577  0.31666667  1.0
  P  P3872  1  0.48797251  0.00495577  0.31666667  1.0
  P  P3873  1  0.48797251  0.12995577  0.31666667  1.0
  P  P3874  1  0.48797251  0.25495577  0.31666667  1.0
  P  P3875  1  0.48797251  0.37995577  0.31666667  1.0
  P  P3876  1  0.48797251  0.50495577  0.31666667  1.0
  P  P3877  1  0.48797251  0.62995577  0.31666667  1.0
  P  P3878  1  0.48797251  0.75495577  0.31666667  1.0
  P  P3879  1  0.48797251  0.87995577  0.31666667  1.0
  P  P3880  1  0.58797251  0.00495577  0.31666667  1.0
  P  P3881  1  0.58797251  0.12995577  0.31666667  1.0
  P  P3882  1  0.58797251  0.25495577  0.31666667  1.0
  P  P3883  1  0.58797251  0.37995577  0.31666667  1.0
  P  P3884  1  0.58797251  0.50495577  0.31666667  1.0
  P  P3885  1  0.58797251  0.62995577  0.31666667  1.0
  P  P3886  1  0.58797251  0.75495577  0.31666667  1.0
  P  P3887  1  0.58797251  0.87995577  0.31666667  1.0
  P  P3888  1  0.68797251  0.00495577  0.31666667  1.0
  P  P3889  1  0.68797251  0.12995577  0.31666667  1.0
  P  P3890  1  0.68797251  0.25495577  0.31666667  1.0
  P  P3891  1  0.68797251  0.37995577  0.31666667  1.0
  P  P3892  1  0.68797251  0.50495577  0.31666667  1.0
  P  P3893  1  0.68797251  0.62995577  0.31666667  1.0
  P  P3894  1  0.68797251  0.75495577  0.31666667  1.0
  P  P3895  1  0.68797251  0.87995577  0.31666667  1.0
  P  P3896  1  0.78797251  0.00495577  0.31666667  1.0
  P  P3897  1  0.78797251  0.12995577  0.31666667  1.0
  P  P3898  1  0.78797251  0.25495577  0.31666667  1.0
  P  P3899  1  0.78797251  0.37995577  0.31666667  1.0
  P  P3900  1  0.78797251  0.50495577  0.31666667  1.0
  P  P3901  1  0.78797251  0.62995577  0.31666667  1.0
  P  P3902  1  0.78797251  0.75495577  0.31666667  1.0
  P  P3903  1  0.78797251  0.87995577  0.31666667  1.0
  P  P3904  1  0.88797251  0.00495577  0.31666667  1.0
  P  P3905  1  0.88797251  0.12995577  0.31666667  1.0
  P  P3906  1  0.88797251  0.25495577  0.31666667  1.0
  P  P3907  1  0.88797251  0.37995577  0.31666667  1.0
  P  P3908  1  0.88797251  0.50495577  0.31666667  1.0
  P  P3909  1  0.88797251  0.62995577  0.31666667  1.0
  P  P3910  1  0.88797251  0.75495577  0.31666667  1.0
  P  P3911  1  0.88797251  0.87995577  0.31666667  1.0
  P  P3912  1  0.98797251  0.00495577  0.31666667  1.0
  P  P3913  1  0.98797251  0.12995577  0.31666667  1.0
  P  P3914  1  0.98797251  0.25495577  0.31666667  1.0
  P  P3915  1  0.98797251  0.37995577  0.31666667  1.0
  P  P3916  1  0.98797251  0.50495577  0.31666667  1.0
  P  P3917  1  0.98797251  0.62995577  0.31666667  1.0
  P  P3918  1  0.98797251  0.75495577  0.31666667  1.0
  P  P3919  1  0.98797251  0.87995577  0.31666667  1.0
  P  P3920  1  0.01202749  0.12004423  0.28333333  1.0
  P  P3921  1  0.01202749  0.24504423  0.28333333  1.0
  P  P3922  1  0.01202749  0.37004423  0.28333333  1.0
  P  P3923  1  0.01202749  0.49504423  0.28333333  1.0
  P  P3924  1  0.01202749  0.62004423  0.28333333  1.0
  P  P3925  1  0.01202749  0.74504423  0.28333333  1.0
  P  P3926  1  0.01202749  0.87004423  0.28333333  1.0
  P  P3927  1  0.01202749  0.99504423  0.28333333  1.0
  P  P3928  1  0.11202749  0.12004423  0.28333333  1.0
  P  P3929  1  0.11202749  0.24504423  0.28333333  1.0
  P  P3930  1  0.11202749  0.37004423  0.28333333  1.0
  P  P3931  1  0.11202749  0.49504423  0.28333333  1.0
  P  P3932  1  0.11202749  0.62004423  0.28333333  1.0
  P  P3933  1  0.11202749  0.74504423  0.28333333  1.0
  P  P3934  1  0.11202749  0.87004423  0.28333333  1.0
  P  P3935  1  0.11202749  0.99504423  0.28333333  1.0
  P  P3936  1  0.21202749  0.12004423  0.28333333  1.0
  P  P3937  1  0.21202749  0.24504423  0.28333333  1.0
  P  P3938  1  0.21202749  0.37004423  0.28333333  1.0
  P  P3939  1  0.21202749  0.49504423  0.28333333  1.0
  P  P3940  1  0.21202749  0.62004423  0.28333333  1.0
  P  P3941  1  0.21202749  0.74504423  0.28333333  1.0
  P  P3942  1  0.21202749  0.87004423  0.28333333  1.0
  P  P3943  1  0.21202749  0.99504423  0.28333333  1.0
  P  P3944  1  0.31202749  0.12004423  0.28333333  1.0
  P  P3945  1  0.31202749  0.24504423  0.28333333  1.0
  P  P3946  1  0.31202749  0.37004423  0.28333333  1.0
  P  P3947  1  0.31202749  0.49504423  0.28333333  1.0
  P  P3948  1  0.31202749  0.62004423  0.28333333  1.0
  P  P3949  1  0.31202749  0.74504423  0.28333333  1.0
  P  P3950  1  0.31202749  0.87004423  0.28333333  1.0
  P  P3951  1  0.31202749  0.99504423  0.28333333  1.0
  P  P3952  1  0.41202749  0.12004423  0.28333333  1.0
  P  P3953  1  0.41202749  0.24504423  0.28333333  1.0
  P  P3954  1  0.41202749  0.37004423  0.28333333  1.0
  P  P3955  1  0.41202749  0.49504423  0.28333333  1.0
  P  P3956  1  0.41202749  0.62004423  0.28333333  1.0
  P  P3957  1  0.41202749  0.74504423  0.28333333  1.0
  P  P3958  1  0.41202749  0.87004423  0.28333333  1.0
  P  P3959  1  0.41202749  0.99504423  0.28333333  1.0
  P  P3960  1  0.51202749  0.12004423  0.28333333  1.0
  P  P3961  1  0.51202749  0.24504423  0.28333333  1.0
  P  P3962  1  0.51202749  0.37004423  0.28333333  1.0
  P  P3963  1  0.51202749  0.49504423  0.28333333  1.0
  P  P3964  1  0.51202749  0.62004423  0.28333333  1.0
  P  P3965  1  0.51202749  0.74504423  0.28333333  1.0
  P  P3966  1  0.51202749  0.87004423  0.28333333  1.0
  P  P3967  1  0.51202749  0.99504423  0.28333333  1.0
  P  P3968  1  0.61202749  0.12004423  0.28333333  1.0
  P  P3969  1  0.61202749  0.24504423  0.28333333  1.0
  P  P3970  1  0.61202749  0.37004423  0.28333333  1.0
  P  P3971  1  0.61202749  0.49504423  0.28333333  1.0
  P  P3972  1  0.61202749  0.62004423  0.28333333  1.0
  P  P3973  1  0.61202749  0.74504423  0.28333333  1.0
  P  P3974  1  0.61202749  0.87004423  0.28333333  1.0
  P  P3975  1  0.61202749  0.99504423  0.28333333  1.0
  P  P3976  1  0.71202749  0.12004423  0.28333333  1.0
  P  P3977  1  0.71202749  0.24504423  0.28333333  1.0
  P  P3978  1  0.71202749  0.37004423  0.28333333  1.0
  P  P3979  1  0.71202749  0.49504423  0.28333333  1.0
  P  P3980  1  0.71202749  0.62004423  0.28333333  1.0
  P  P3981  1  0.71202749  0.74504423  0.28333333  1.0
  P  P3982  1  0.71202749  0.87004423  0.28333333  1.0
  P  P3983  1  0.71202749  0.99504423  0.28333333  1.0
  P  P3984  1  0.81202749  0.12004423  0.28333333  1.0
  P  P3985  1  0.81202749  0.24504423  0.28333333  1.0
  P  P3986  1  0.81202749  0.37004423  0.28333333  1.0
  P  P3987  1  0.81202749  0.49504423  0.28333333  1.0
  P  P3988  1  0.81202749  0.62004423  0.28333333  1.0
  P  P3989  1  0.81202749  0.74504423  0.28333333  1.0
  P  P3990  1  0.81202749  0.87004423  0.28333333  1.0
  P  P3991  1  0.81202749  0.99504423  0.28333333  1.0
  P  P3992  1  0.91202749  0.12004423  0.28333333  1.0
  P  P3993  1  0.91202749  0.24504423  0.28333333  1.0
  P  P3994  1  0.91202749  0.37004423  0.28333333  1.0
  P  P3995  1  0.91202749  0.49504423  0.28333333  1.0
  P  P3996  1  0.91202749  0.62004423  0.28333333  1.0
  P  P3997  1  0.91202749  0.74504423  0.28333333  1.0
  P  P3998  1  0.91202749  0.87004423  0.28333333  1.0
  P  P3999  1  0.91202749  0.99504423  0.28333333  1.0
  P  P4000  1  0.03797251  0.05754423  0.31666667  1.0
  P  P4001  1  0.03797251  0.18254423  0.31666667  1.0
  P  P4002  1  0.03797251  0.30754423  0.31666667  1.0
  P  P4003  1  0.03797251  0.43254423  0.31666667  1.0
  P  P4004  1  0.03797251  0.55754423  0.31666667  1.0
  P  P4005  1  0.03797251  0.68254423  0.31666667  1.0
  P  P4006  1  0.03797251  0.80754423  0.31666667  1.0
  P  P4007  1  0.03797251  0.93254423  0.31666667  1.0
  P  P4008  1  0.13797251  0.05754423  0.31666667  1.0
  P  P4009  1  0.13797251  0.18254423  0.31666667  1.0
  P  P4010  1  0.13797251  0.30754423  0.31666667  1.0
  P  P4011  1  0.13797251  0.43254423  0.31666667  1.0
  P  P4012  1  0.13797251  0.55754423  0.31666667  1.0
  P  P4013  1  0.13797251  0.68254423  0.31666667  1.0
  P  P4014  1  0.13797251  0.80754423  0.31666667  1.0
  P  P4015  1  0.13797251  0.93254423  0.31666667  1.0
  P  P4016  1  0.23797251  0.05754423  0.31666667  1.0
  P  P4017  1  0.23797251  0.18254423  0.31666667  1.0
  P  P4018  1  0.23797251  0.30754423  0.31666667  1.0
  P  P4019  1  0.23797251  0.43254423  0.31666667  1.0
  P  P4020  1  0.23797251  0.55754423  0.31666667  1.0
  P  P4021  1  0.23797251  0.68254423  0.31666667  1.0
  P  P4022  1  0.23797251  0.80754423  0.31666667  1.0
  P  P4023  1  0.23797251  0.93254423  0.31666667  1.0
  P  P4024  1  0.33797251  0.05754423  0.31666667  1.0
  P  P4025  1  0.33797251  0.18254423  0.31666667  1.0
  P  P4026  1  0.33797251  0.30754423  0.31666667  1.0
  P  P4027  1  0.33797251  0.43254423  0.31666667  1.0
  P  P4028  1  0.33797251  0.55754423  0.31666667  1.0
  P  P4029  1  0.33797251  0.68254423  0.31666667  1.0
  P  P4030  1  0.33797251  0.80754423  0.31666667  1.0
  P  P4031  1  0.33797251  0.93254423  0.31666667  1.0
  P  P4032  1  0.43797251  0.05754423  0.31666667  1.0
  P  P4033  1  0.43797251  0.18254423  0.31666667  1.0
  P  P4034  1  0.43797251  0.30754423  0.31666667  1.0
  P  P4035  1  0.43797251  0.43254423  0.31666667  1.0
  P  P4036  1  0.43797251  0.55754423  0.31666667  1.0
  P  P4037  1  0.43797251  0.68254423  0.31666667  1.0
  P  P4038  1  0.43797251  0.80754423  0.31666667  1.0
  P  P4039  1  0.43797251  0.93254423  0.31666667  1.0
  P  P4040  1  0.53797251  0.05754423  0.31666667  1.0
  P  P4041  1  0.53797251  0.18254423  0.31666667  1.0
  P  P4042  1  0.53797251  0.30754423  0.31666667  1.0
  P  P4043  1  0.53797251  0.43254423  0.31666667  1.0
  P  P4044  1  0.53797251  0.55754423  0.31666667  1.0
  P  P4045  1  0.53797251  0.68254423  0.31666667  1.0
  P  P4046  1  0.53797251  0.80754423  0.31666667  1.0
  P  P4047  1  0.53797251  0.93254423  0.31666667  1.0
  P  P4048  1  0.63797251  0.05754423  0.31666667  1.0
  P  P4049  1  0.63797251  0.18254423  0.31666667  1.0
  P  P4050  1  0.63797251  0.30754423  0.31666667  1.0
  P  P4051  1  0.63797251  0.43254423  0.31666667  1.0
  P  P4052  1  0.63797251  0.55754423  0.31666667  1.0
  P  P4053  1  0.63797251  0.68254423  0.31666667  1.0
  P  P4054  1  0.63797251  0.80754423  0.31666667  1.0
  P  P4055  1  0.63797251  0.93254423  0.31666667  1.0
  P  P4056  1  0.73797251  0.05754423  0.31666667  1.0
  P  P4057  1  0.73797251  0.18254423  0.31666667  1.0
  P  P4058  1  0.73797251  0.30754423  0.31666667  1.0
  P  P4059  1  0.73797251  0.43254423  0.31666667  1.0
  P  P4060  1  0.73797251  0.55754423  0.31666667  1.0
  P  P4061  1  0.73797251  0.68254423  0.31666667  1.0
  P  P4062  1  0.73797251  0.80754423  0.31666667  1.0
  P  P4063  1  0.73797251  0.93254423  0.31666667  1.0
  P  P4064  1  0.83797251  0.05754423  0.31666667  1.0
  P  P4065  1  0.83797251  0.18254423  0.31666667  1.0
  P  P4066  1  0.83797251  0.30754423  0.31666667  1.0
  P  P4067  1  0.83797251  0.43254423  0.31666667  1.0
  P  P4068  1  0.83797251  0.55754423  0.31666667  1.0
  P  P4069  1  0.83797251  0.68254423  0.31666667  1.0
  P  P4070  1  0.83797251  0.80754423  0.31666667  1.0
  P  P4071  1  0.83797251  0.93254423  0.31666667  1.0
  P  P4072  1  0.93797251  0.05754423  0.31666667  1.0
  P  P4073  1  0.93797251  0.18254423  0.31666667  1.0
  P  P4074  1  0.93797251  0.30754423  0.31666667  1.0
  P  P4075  1  0.93797251  0.43254423  0.31666667  1.0
  P  P4076  1  0.93797251  0.55754423  0.31666667  1.0
  P  P4077  1  0.93797251  0.68254423  0.31666667  1.0
  P  P4078  1  0.93797251  0.80754423  0.31666667  1.0
  P  P4079  1  0.93797251  0.93254423  0.31666667  1.0
  P  P4080  1  0.06202749  0.06745577  0.28333333  1.0
  P  P4081  1  0.06202749  0.19245577  0.28333333  1.0
  P  P4082  1  0.06202749  0.31745577  0.28333333  1.0
  P  P4083  1  0.06202749  0.44245577  0.28333333  1.0
  P  P4084  1  0.06202749  0.56745577  0.28333333  1.0
  P  P4085  1  0.06202749  0.69245577  0.28333333  1.0
  P  P4086  1  0.06202749  0.81745577  0.28333333  1.0
  P  P4087  1  0.06202749  0.94245577  0.28333333  1.0
  P  P4088  1  0.16202749  0.06745577  0.28333333  1.0
  P  P4089  1  0.16202749  0.19245577  0.28333333  1.0
  P  P4090  1  0.16202749  0.31745577  0.28333333  1.0
  P  P4091  1  0.16202749  0.44245577  0.28333333  1.0
  P  P4092  1  0.16202749  0.56745577  0.28333333  1.0
  P  P4093  1  0.16202749  0.69245577  0.28333333  1.0
  P  P4094  1  0.16202749  0.81745577  0.28333333  1.0
  P  P4095  1  0.16202749  0.94245577  0.28333333  1.0
  P  P4096  1  0.26202749  0.06745577  0.28333333  1.0
  P  P4097  1  0.26202749  0.19245577  0.28333333  1.0
  P  P4098  1  0.26202749  0.31745577  0.28333333  1.0
  P  P4099  1  0.26202749  0.44245577  0.28333333  1.0
  P  P4100  1  0.26202749  0.56745577  0.28333333  1.0
  P  P4101  1  0.26202749  0.69245577  0.28333333  1.0
  P  P4102  1  0.26202749  0.81745577  0.28333333  1.0
  P  P4103  1  0.26202749  0.94245577  0.28333333  1.0
  P  P4104  1  0.36202749  0.06745577  0.28333333  1.0
  P  P4105  1  0.36202749  0.19245577  0.28333333  1.0
  P  P4106  1  0.36202749  0.31745577  0.28333333  1.0
  P  P4107  1  0.36202749  0.44245577  0.28333333  1.0
  P  P4108  1  0.36202749  0.56745577  0.28333333  1.0
  P  P4109  1  0.36202749  0.69245577  0.28333333  1.0
  P  P4110  1  0.36202749  0.81745577  0.28333333  1.0
  P  P4111  1  0.36202749  0.94245577  0.28333333  1.0
  P  P4112  1  0.46202749  0.06745577  0.28333333  1.0
  P  P4113  1  0.46202749  0.19245577  0.28333333  1.0
  P  P4114  1  0.46202749  0.31745577  0.28333333  1.0
  P  P4115  1  0.46202749  0.44245577  0.28333333  1.0
  P  P4116  1  0.46202749  0.56745577  0.28333333  1.0
  P  P4117  1  0.46202749  0.69245577  0.28333333  1.0
  P  P4118  1  0.46202749  0.81745577  0.28333333  1.0
  P  P4119  1  0.46202749  0.94245577  0.28333333  1.0
  P  P4120  1  0.56202749  0.06745577  0.28333333  1.0
  P  P4121  1  0.56202749  0.19245577  0.28333333  1.0
  P  P4122  1  0.56202749  0.31745577  0.28333333  1.0
  P  P4123  1  0.56202749  0.44245577  0.28333333  1.0
  P  P4124  1  0.56202749  0.56745577  0.28333333  1.0
  P  P4125  1  0.56202749  0.69245577  0.28333333  1.0
  P  P4126  1  0.56202749  0.81745577  0.28333333  1.0
  P  P4127  1  0.56202749  0.94245577  0.28333333  1.0
  P  P4128  1  0.66202749  0.06745577  0.28333333  1.0
  P  P4129  1  0.66202749  0.19245577  0.28333333  1.0
  P  P4130  1  0.66202749  0.31745577  0.28333333  1.0
  P  P4131  1  0.66202749  0.44245577  0.28333333  1.0
  P  P4132  1  0.66202749  0.56745577  0.28333333  1.0
  P  P4133  1  0.66202749  0.69245577  0.28333333  1.0
  P  P4134  1  0.66202749  0.81745577  0.28333333  1.0
  P  P4135  1  0.66202749  0.94245577  0.28333333  1.0
  P  P4136  1  0.76202749  0.06745577  0.28333333  1.0
  P  P4137  1  0.76202749  0.19245577  0.28333333  1.0
  P  P4138  1  0.76202749  0.31745577  0.28333333  1.0
  P  P4139  1  0.76202749  0.44245577  0.28333333  1.0
  P  P4140  1  0.76202749  0.56745577  0.28333333  1.0
  P  P4141  1  0.76202749  0.69245577  0.28333333  1.0
  P  P4142  1  0.76202749  0.81745577  0.28333333  1.0
  P  P4143  1  0.76202749  0.94245577  0.28333333  1.0
  P  P4144  1  0.86202749  0.06745577  0.28333333  1.0
  P  P4145  1  0.86202749  0.19245577  0.28333333  1.0
  P  P4146  1  0.86202749  0.31745577  0.28333333  1.0
  P  P4147  1  0.86202749  0.44245577  0.28333333  1.0
  P  P4148  1  0.86202749  0.56745577  0.28333333  1.0
  P  P4149  1  0.86202749  0.69245577  0.28333333  1.0
  P  P4150  1  0.86202749  0.81745577  0.28333333  1.0
  P  P4151  1  0.86202749  0.94245577  0.28333333  1.0
  P  P4152  1  0.96202749  0.06745577  0.28333333  1.0
  P  P4153  1  0.96202749  0.19245577  0.28333333  1.0
  P  P4154  1  0.96202749  0.31745577  0.28333333  1.0
  P  P4155  1  0.96202749  0.44245577  0.28333333  1.0
  P  P4156  1  0.96202749  0.56745577  0.28333333  1.0
  P  P4157  1  0.96202749  0.69245577  0.28333333  1.0
  P  P4158  1  0.96202749  0.81745577  0.28333333  1.0
  P  P4159  1  0.96202749  0.94245577  0.28333333  1.0
  P  P4160  1  0.05878854  0.01712191  0.35000000  1.0
  P  P4161  1  0.05878854  0.14212191  0.35000000  1.0
  P  P4162  1  0.05878854  0.26712191  0.35000000  1.0
  P  P4163  1  0.05878854  0.39212191  0.35000000  1.0
  P  P4164  1  0.05878854  0.51712191  0.35000000  1.0
  P  P4165  1  0.05878854  0.64212191  0.35000000  1.0
  P  P4166  1  0.05878854  0.76712191  0.35000000  1.0
  P  P4167  1  0.05878854  0.89212191  0.35000000  1.0
  P  P4168  1  0.15878854  0.01712191  0.35000000  1.0
  P  P4169  1  0.15878854  0.14212191  0.35000000  1.0
  P  P4170  1  0.15878854  0.26712191  0.35000000  1.0
  P  P4171  1  0.15878854  0.39212191  0.35000000  1.0
  P  P4172  1  0.15878854  0.51712191  0.35000000  1.0
  P  P4173  1  0.15878854  0.64212191  0.35000000  1.0
  P  P4174  1  0.15878854  0.76712191  0.35000000  1.0
  P  P4175  1  0.15878854  0.89212191  0.35000000  1.0
  P  P4176  1  0.25878854  0.01712191  0.35000000  1.0
  P  P4177  1  0.25878854  0.14212191  0.35000000  1.0
  P  P4178  1  0.25878854  0.26712191  0.35000000  1.0
  P  P4179  1  0.25878854  0.39212191  0.35000000  1.0
  P  P4180  1  0.25878854  0.51712191  0.35000000  1.0
  P  P4181  1  0.25878854  0.64212191  0.35000000  1.0
  P  P4182  1  0.25878854  0.76712191  0.35000000  1.0
  P  P4183  1  0.25878854  0.89212191  0.35000000  1.0
  P  P4184  1  0.35878854  0.01712191  0.35000000  1.0
  P  P4185  1  0.35878854  0.14212191  0.35000000  1.0
  P  P4186  1  0.35878854  0.26712191  0.35000000  1.0
  P  P4187  1  0.35878854  0.39212191  0.35000000  1.0
  P  P4188  1  0.35878854  0.51712191  0.35000000  1.0
  P  P4189  1  0.35878854  0.64212191  0.35000000  1.0
  P  P4190  1  0.35878854  0.76712191  0.35000000  1.0
  P  P4191  1  0.35878854  0.89212191  0.35000000  1.0
  P  P4192  1  0.45878854  0.01712191  0.35000000  1.0
  P  P4193  1  0.45878854  0.14212191  0.35000000  1.0
  P  P4194  1  0.45878854  0.26712191  0.35000000  1.0
  P  P4195  1  0.45878854  0.39212191  0.35000000  1.0
  P  P4196  1  0.45878854  0.51712191  0.35000000  1.0
  P  P4197  1  0.45878854  0.64212191  0.35000000  1.0
  P  P4198  1  0.45878854  0.76712191  0.35000000  1.0
  P  P4199  1  0.45878854  0.89212191  0.35000000  1.0
  P  P4200  1  0.55878854  0.01712191  0.35000000  1.0
  P  P4201  1  0.55878854  0.14212191  0.35000000  1.0
  P  P4202  1  0.55878854  0.26712191  0.35000000  1.0
  P  P4203  1  0.55878854  0.39212191  0.35000000  1.0
  P  P4204  1  0.55878854  0.51712191  0.35000000  1.0
  P  P4205  1  0.55878854  0.64212191  0.35000000  1.0
  P  P4206  1  0.55878854  0.76712191  0.35000000  1.0
  P  P4207  1  0.55878854  0.89212191  0.35000000  1.0
  P  P4208  1  0.65878854  0.01712191  0.35000000  1.0
  P  P4209  1  0.65878854  0.14212191  0.35000000  1.0
  P  P4210  1  0.65878854  0.26712191  0.35000000  1.0
  P  P4211  1  0.65878854  0.39212191  0.35000000  1.0
  P  P4212  1  0.65878854  0.51712191  0.35000000  1.0
  P  P4213  1  0.65878854  0.64212191  0.35000000  1.0
  P  P4214  1  0.65878854  0.76712191  0.35000000  1.0
  P  P4215  1  0.65878854  0.89212191  0.35000000  1.0
  P  P4216  1  0.75878854  0.01712191  0.35000000  1.0
  P  P4217  1  0.75878854  0.14212191  0.35000000  1.0
  P  P4218  1  0.75878854  0.26712191  0.35000000  1.0
  P  P4219  1  0.75878854  0.39212191  0.35000000  1.0
  P  P4220  1  0.75878854  0.51712191  0.35000000  1.0
  P  P4221  1  0.75878854  0.64212191  0.35000000  1.0
  P  P4222  1  0.75878854  0.76712191  0.35000000  1.0
  P  P4223  1  0.75878854  0.89212191  0.35000000  1.0
  P  P4224  1  0.85878854  0.01712191  0.35000000  1.0
  P  P4225  1  0.85878854  0.14212191  0.35000000  1.0
  P  P4226  1  0.85878854  0.26712191  0.35000000  1.0
  P  P4227  1  0.85878854  0.39212191  0.35000000  1.0
  P  P4228  1  0.85878854  0.51712191  0.35000000  1.0
  P  P4229  1  0.85878854  0.64212191  0.35000000  1.0
  P  P4230  1  0.85878854  0.76712191  0.35000000  1.0
  P  P4231  1  0.85878854  0.89212191  0.35000000  1.0
  P  P4232  1  0.95878854  0.01712191  0.35000000  1.0
  P  P4233  1  0.95878854  0.14212191  0.35000000  1.0
  P  P4234  1  0.95878854  0.26712191  0.35000000  1.0
  P  P4235  1  0.95878854  0.39212191  0.35000000  1.0
  P  P4236  1  0.95878854  0.51712191  0.35000000  1.0
  P  P4237  1  0.95878854  0.64212191  0.35000000  1.0
  P  P4238  1  0.95878854  0.76712191  0.35000000  1.0
  P  P4239  1  0.95878854  0.89212191  0.35000000  1.0
  P  P4240  1  0.04121146  0.10787809  0.38333333  1.0
  P  P4241  1  0.04121146  0.23287809  0.38333333  1.0
  P  P4242  1  0.04121146  0.35787809  0.38333333  1.0
  P  P4243  1  0.04121146  0.48287809  0.38333333  1.0
  P  P4244  1  0.04121146  0.60787809  0.38333333  1.0
  P  P4245  1  0.04121146  0.73287809  0.38333333  1.0
  P  P4246  1  0.04121146  0.85787809  0.38333333  1.0
  P  P4247  1  0.04121146  0.98287809  0.38333333  1.0
  P  P4248  1  0.14121146  0.10787809  0.38333333  1.0
  P  P4249  1  0.14121146  0.23287809  0.38333333  1.0
  P  P4250  1  0.14121146  0.35787809  0.38333333  1.0
  P  P4251  1  0.14121146  0.48287809  0.38333333  1.0
  P  P4252  1  0.14121146  0.60787809  0.38333333  1.0
  P  P4253  1  0.14121146  0.73287809  0.38333333  1.0
  P  P4254  1  0.14121146  0.85787809  0.38333333  1.0
  P  P4255  1  0.14121146  0.98287809  0.38333333  1.0
  P  P4256  1  0.24121146  0.10787809  0.38333333  1.0
  P  P4257  1  0.24121146  0.23287809  0.38333333  1.0
  P  P4258  1  0.24121146  0.35787809  0.38333333  1.0
  P  P4259  1  0.24121146  0.48287809  0.38333333  1.0
  P  P4260  1  0.24121146  0.60787809  0.38333333  1.0
  P  P4261  1  0.24121146  0.73287809  0.38333333  1.0
  P  P4262  1  0.24121146  0.85787809  0.38333333  1.0
  P  P4263  1  0.24121146  0.98287809  0.38333333  1.0
  P  P4264  1  0.34121146  0.10787809  0.38333333  1.0
  P  P4265  1  0.34121146  0.23287809  0.38333333  1.0
  P  P4266  1  0.34121146  0.35787809  0.38333333  1.0
  P  P4267  1  0.34121146  0.48287809  0.38333333  1.0
  P  P4268  1  0.34121146  0.60787809  0.38333333  1.0
  P  P4269  1  0.34121146  0.73287809  0.38333333  1.0
  P  P4270  1  0.34121146  0.85787809  0.38333333  1.0
  P  P4271  1  0.34121146  0.98287809  0.38333333  1.0
  P  P4272  1  0.44121146  0.10787809  0.38333333  1.0
  P  P4273  1  0.44121146  0.23287809  0.38333333  1.0
  P  P4274  1  0.44121146  0.35787809  0.38333333  1.0
  P  P4275  1  0.44121146  0.48287809  0.38333333  1.0
  P  P4276  1  0.44121146  0.60787809  0.38333333  1.0
  P  P4277  1  0.44121146  0.73287809  0.38333333  1.0
  P  P4278  1  0.44121146  0.85787809  0.38333333  1.0
  P  P4279  1  0.44121146  0.98287809  0.38333333  1.0
  P  P4280  1  0.54121146  0.10787809  0.38333333  1.0
  P  P4281  1  0.54121146  0.23287809  0.38333333  1.0
  P  P4282  1  0.54121146  0.35787809  0.38333333  1.0
  P  P4283  1  0.54121146  0.48287809  0.38333333  1.0
  P  P4284  1  0.54121146  0.60787809  0.38333333  1.0
  P  P4285  1  0.54121146  0.73287809  0.38333333  1.0
  P  P4286  1  0.54121146  0.85787809  0.38333333  1.0
  P  P4287  1  0.54121146  0.98287809  0.38333333  1.0
  P  P4288  1  0.64121146  0.10787809  0.38333333  1.0
  P  P4289  1  0.64121146  0.23287809  0.38333333  1.0
  P  P4290  1  0.64121146  0.35787809  0.38333333  1.0
  P  P4291  1  0.64121146  0.48287809  0.38333333  1.0
  P  P4292  1  0.64121146  0.60787809  0.38333333  1.0
  P  P4293  1  0.64121146  0.73287809  0.38333333  1.0
  P  P4294  1  0.64121146  0.85787809  0.38333333  1.0
  P  P4295  1  0.64121146  0.98287809  0.38333333  1.0
  P  P4296  1  0.74121146  0.10787809  0.38333333  1.0
  P  P4297  1  0.74121146  0.23287809  0.38333333  1.0
  P  P4298  1  0.74121146  0.35787809  0.38333333  1.0
  P  P4299  1  0.74121146  0.48287809  0.38333333  1.0
  P  P4300  1  0.74121146  0.60787809  0.38333333  1.0
  P  P4301  1  0.74121146  0.73287809  0.38333333  1.0
  P  P4302  1  0.74121146  0.85787809  0.38333333  1.0
  P  P4303  1  0.74121146  0.98287809  0.38333333  1.0
  P  P4304  1  0.84121146  0.10787809  0.38333333  1.0
  P  P4305  1  0.84121146  0.23287809  0.38333333  1.0
  P  P4306  1  0.84121146  0.35787809  0.38333333  1.0
  P  P4307  1  0.84121146  0.48287809  0.38333333  1.0
  P  P4308  1  0.84121146  0.60787809  0.38333333  1.0
  P  P4309  1  0.84121146  0.73287809  0.38333333  1.0
  P  P4310  1  0.84121146  0.85787809  0.38333333  1.0
  P  P4311  1  0.84121146  0.98287809  0.38333333  1.0
  P  P4312  1  0.94121146  0.10787809  0.38333333  1.0
  P  P4313  1  0.94121146  0.23287809  0.38333333  1.0
  P  P4314  1  0.94121146  0.35787809  0.38333333  1.0
  P  P4315  1  0.94121146  0.48287809  0.38333333  1.0
  P  P4316  1  0.94121146  0.60787809  0.38333333  1.0
  P  P4317  1  0.94121146  0.73287809  0.38333333  1.0
  P  P4318  1  0.94121146  0.85787809  0.38333333  1.0
  P  P4319  1  0.94121146  0.98287809  0.38333333  1.0
  P  P4320  1  0.00878854  0.04537809  0.35000000  1.0
  P  P4321  1  0.00878854  0.17037809  0.35000000  1.0
  P  P4322  1  0.00878854  0.29537809  0.35000000  1.0
  P  P4323  1  0.00878854  0.42037809  0.35000000  1.0
  P  P4324  1  0.00878854  0.54537809  0.35000000  1.0
  P  P4325  1  0.00878854  0.67037809  0.35000000  1.0
  P  P4326  1  0.00878854  0.79537809  0.35000000  1.0
  P  P4327  1  0.00878854  0.92037809  0.35000000  1.0
  P  P4328  1  0.10878854  0.04537809  0.35000000  1.0
  P  P4329  1  0.10878854  0.17037809  0.35000000  1.0
  P  P4330  1  0.10878854  0.29537809  0.35000000  1.0
  P  P4331  1  0.10878854  0.42037809  0.35000000  1.0
  P  P4332  1  0.10878854  0.54537809  0.35000000  1.0
  P  P4333  1  0.10878854  0.67037809  0.35000000  1.0
  P  P4334  1  0.10878854  0.79537809  0.35000000  1.0
  P  P4335  1  0.10878854  0.92037809  0.35000000  1.0
  P  P4336  1  0.20878854  0.04537809  0.35000000  1.0
  P  P4337  1  0.20878854  0.17037809  0.35000000  1.0
  P  P4338  1  0.20878854  0.29537809  0.35000000  1.0
  P  P4339  1  0.20878854  0.42037809  0.35000000  1.0
  P  P4340  1  0.20878854  0.54537809  0.35000000  1.0
  P  P4341  1  0.20878854  0.67037809  0.35000000  1.0
  P  P4342  1  0.20878854  0.79537809  0.35000000  1.0
  P  P4343  1  0.20878854  0.92037809  0.35000000  1.0
  P  P4344  1  0.30878854  0.04537809  0.35000000  1.0
  P  P4345  1  0.30878854  0.17037809  0.35000000  1.0
  P  P4346  1  0.30878854  0.29537809  0.35000000  1.0
  P  P4347  1  0.30878854  0.42037809  0.35000000  1.0
  P  P4348  1  0.30878854  0.54537809  0.35000000  1.0
  P  P4349  1  0.30878854  0.67037809  0.35000000  1.0
  P  P4350  1  0.30878854  0.79537809  0.35000000  1.0
  P  P4351  1  0.30878854  0.92037809  0.35000000  1.0
  P  P4352  1  0.40878854  0.04537809  0.35000000  1.0
  P  P4353  1  0.40878854  0.17037809  0.35000000  1.0
  P  P4354  1  0.40878854  0.29537809  0.35000000  1.0
  P  P4355  1  0.40878854  0.42037809  0.35000000  1.0
  P  P4356  1  0.40878854  0.54537809  0.35000000  1.0
  P  P4357  1  0.40878854  0.67037809  0.35000000  1.0
  P  P4358  1  0.40878854  0.79537809  0.35000000  1.0
  P  P4359  1  0.40878854  0.92037809  0.35000000  1.0
  P  P4360  1  0.50878854  0.04537809  0.35000000  1.0
  P  P4361  1  0.50878854  0.17037809  0.35000000  1.0
  P  P4362  1  0.50878854  0.29537809  0.35000000  1.0
  P  P4363  1  0.50878854  0.42037809  0.35000000  1.0
  P  P4364  1  0.50878854  0.54537809  0.35000000  1.0
  P  P4365  1  0.50878854  0.67037809  0.35000000  1.0
  P  P4366  1  0.50878854  0.79537809  0.35000000  1.0
  P  P4367  1  0.50878854  0.92037809  0.35000000  1.0
  P  P4368  1  0.60878854  0.04537809  0.35000000  1.0
  P  P4369  1  0.60878854  0.17037809  0.35000000  1.0
  P  P4370  1  0.60878854  0.29537809  0.35000000  1.0
  P  P4371  1  0.60878854  0.42037809  0.35000000  1.0
  P  P4372  1  0.60878854  0.54537809  0.35000000  1.0
  P  P4373  1  0.60878854  0.67037809  0.35000000  1.0
  P  P4374  1  0.60878854  0.79537809  0.35000000  1.0
  P  P4375  1  0.60878854  0.92037809  0.35000000  1.0
  P  P4376  1  0.70878854  0.04537809  0.35000000  1.0
  P  P4377  1  0.70878854  0.17037809  0.35000000  1.0
  P  P4378  1  0.70878854  0.29537809  0.35000000  1.0
  P  P4379  1  0.70878854  0.42037809  0.35000000  1.0
  P  P4380  1  0.70878854  0.54537809  0.35000000  1.0
  P  P4381  1  0.70878854  0.67037809  0.35000000  1.0
  P  P4382  1  0.70878854  0.79537809  0.35000000  1.0
  P  P4383  1  0.70878854  0.92037809  0.35000000  1.0
  P  P4384  1  0.80878854  0.04537809  0.35000000  1.0
  P  P4385  1  0.80878854  0.17037809  0.35000000  1.0
  P  P4386  1  0.80878854  0.29537809  0.35000000  1.0
  P  P4387  1  0.80878854  0.42037809  0.35000000  1.0
  P  P4388  1  0.80878854  0.54537809  0.35000000  1.0
  P  P4389  1  0.80878854  0.67037809  0.35000000  1.0
  P  P4390  1  0.80878854  0.79537809  0.35000000  1.0
  P  P4391  1  0.80878854  0.92037809  0.35000000  1.0
  P  P4392  1  0.90878854  0.04537809  0.35000000  1.0
  P  P4393  1  0.90878854  0.17037809  0.35000000  1.0
  P  P4394  1  0.90878854  0.29537809  0.35000000  1.0
  P  P4395  1  0.90878854  0.42037809  0.35000000  1.0
  P  P4396  1  0.90878854  0.54537809  0.35000000  1.0
  P  P4397  1  0.90878854  0.67037809  0.35000000  1.0
  P  P4398  1  0.90878854  0.79537809  0.35000000  1.0
  P  P4399  1  0.90878854  0.92037809  0.35000000  1.0
  P  P4400  1  0.09121146  0.07962191  0.38333333  1.0
  P  P4401  1  0.09121146  0.20462191  0.38333333  1.0
  P  P4402  1  0.09121146  0.32962191  0.38333333  1.0
  P  P4403  1  0.09121146  0.45462191  0.38333333  1.0
  P  P4404  1  0.09121146  0.57962191  0.38333333  1.0
  P  P4405  1  0.09121146  0.70462191  0.38333333  1.0
  P  P4406  1  0.09121146  0.82962191  0.38333333  1.0
  P  P4407  1  0.09121146  0.95462191  0.38333333  1.0
  P  P4408  1  0.19121146  0.07962191  0.38333333  1.0
  P  P4409  1  0.19121146  0.20462191  0.38333333  1.0
  P  P4410  1  0.19121146  0.32962191  0.38333333  1.0
  P  P4411  1  0.19121146  0.45462191  0.38333333  1.0
  P  P4412  1  0.19121146  0.57962191  0.38333333  1.0
  P  P4413  1  0.19121146  0.70462191  0.38333333  1.0
  P  P4414  1  0.19121146  0.82962191  0.38333333  1.0
  P  P4415  1  0.19121146  0.95462191  0.38333333  1.0
  P  P4416  1  0.29121146  0.07962191  0.38333333  1.0
  P  P4417  1  0.29121146  0.20462191  0.38333333  1.0
  P  P4418  1  0.29121146  0.32962191  0.38333333  1.0
  P  P4419  1  0.29121146  0.45462191  0.38333333  1.0
  P  P4420  1  0.29121146  0.57962191  0.38333333  1.0
  P  P4421  1  0.29121146  0.70462191  0.38333333  1.0
  P  P4422  1  0.29121146  0.82962191  0.38333333  1.0
  P  P4423  1  0.29121146  0.95462191  0.38333333  1.0
  P  P4424  1  0.39121146  0.07962191  0.38333333  1.0
  P  P4425  1  0.39121146  0.20462191  0.38333333  1.0
  P  P4426  1  0.39121146  0.32962191  0.38333333  1.0
  P  P4427  1  0.39121146  0.45462191  0.38333333  1.0
  P  P4428  1  0.39121146  0.57962191  0.38333333  1.0
  P  P4429  1  0.39121146  0.70462191  0.38333333  1.0
  P  P4430  1  0.39121146  0.82962191  0.38333333  1.0
  P  P4431  1  0.39121146  0.95462191  0.38333333  1.0
  P  P4432  1  0.49121146  0.07962191  0.38333333  1.0
  P  P4433  1  0.49121146  0.20462191  0.38333333  1.0
  P  P4434  1  0.49121146  0.32962191  0.38333333  1.0
  P  P4435  1  0.49121146  0.45462191  0.38333333  1.0
  P  P4436  1  0.49121146  0.57962191  0.38333333  1.0
  P  P4437  1  0.49121146  0.70462191  0.38333333  1.0
  P  P4438  1  0.49121146  0.82962191  0.38333333  1.0
  P  P4439  1  0.49121146  0.95462191  0.38333333  1.0
  P  P4440  1  0.59121146  0.07962191  0.38333333  1.0
  P  P4441  1  0.59121146  0.20462191  0.38333333  1.0
  P  P4442  1  0.59121146  0.32962191  0.38333333  1.0
  P  P4443  1  0.59121146  0.45462191  0.38333333  1.0
  P  P4444  1  0.59121146  0.57962191  0.38333333  1.0
  P  P4445  1  0.59121146  0.70462191  0.38333333  1.0
  P  P4446  1  0.59121146  0.82962191  0.38333333  1.0
  P  P4447  1  0.59121146  0.95462191  0.38333333  1.0
  P  P4448  1  0.69121146  0.07962191  0.38333333  1.0
  P  P4449  1  0.69121146  0.20462191  0.38333333  1.0
  P  P4450  1  0.69121146  0.32962191  0.38333333  1.0
  P  P4451  1  0.69121146  0.45462191  0.38333333  1.0
  P  P4452  1  0.69121146  0.57962191  0.38333333  1.0
  P  P4453  1  0.69121146  0.70462191  0.38333333  1.0
  P  P4454  1  0.69121146  0.82962191  0.38333333  1.0
  P  P4455  1  0.69121146  0.95462191  0.38333333  1.0
  P  P4456  1  0.79121146  0.07962191  0.38333333  1.0
  P  P4457  1  0.79121146  0.20462191  0.38333333  1.0
  P  P4458  1  0.79121146  0.32962191  0.38333333  1.0
  P  P4459  1  0.79121146  0.45462191  0.38333333  1.0
  P  P4460  1  0.79121146  0.57962191  0.38333333  1.0
  P  P4461  1  0.79121146  0.70462191  0.38333333  1.0
  P  P4462  1  0.79121146  0.82962191  0.38333333  1.0
  P  P4463  1  0.79121146  0.95462191  0.38333333  1.0
  P  P4464  1  0.89121146  0.07962191  0.38333333  1.0
  P  P4465  1  0.89121146  0.20462191  0.38333333  1.0
  P  P4466  1  0.89121146  0.32962191  0.38333333  1.0
  P  P4467  1  0.89121146  0.45462191  0.38333333  1.0
  P  P4468  1  0.89121146  0.57962191  0.38333333  1.0
  P  P4469  1  0.89121146  0.70462191  0.38333333  1.0
  P  P4470  1  0.89121146  0.82962191  0.38333333  1.0
  P  P4471  1  0.89121146  0.95462191  0.38333333  1.0
  P  P4472  1  0.99121146  0.07962191  0.38333333  1.0
  P  P4473  1  0.99121146  0.20462191  0.38333333  1.0
  P  P4474  1  0.99121146  0.32962191  0.38333333  1.0
  P  P4475  1  0.99121146  0.45462191  0.38333333  1.0
  P  P4476  1  0.99121146  0.57962191  0.38333333  1.0
  P  P4477  1  0.99121146  0.70462191  0.38333333  1.0
  P  P4478  1  0.99121146  0.82962191  0.38333333  1.0
  P  P4479  1  0.99121146  0.95462191  0.38333333  1.0
  P  P4480  1  0.08797251  0.00495577  0.38333333  1.0
  P  P4481  1  0.08797251  0.12995577  0.38333333  1.0
  P  P4482  1  0.08797251  0.25495577  0.38333333  1.0
  P  P4483  1  0.08797251  0.37995577  0.38333333  1.0
  P  P4484  1  0.08797251  0.50495577  0.38333333  1.0
  P  P4485  1  0.08797251  0.62995577  0.38333333  1.0
  P  P4486  1  0.08797251  0.75495577  0.38333333  1.0
  P  P4487  1  0.08797251  0.87995577  0.38333333  1.0
  P  P4488  1  0.18797251  0.00495577  0.38333333  1.0
  P  P4489  1  0.18797251  0.12995577  0.38333333  1.0
  P  P4490  1  0.18797251  0.25495577  0.38333333  1.0
  P  P4491  1  0.18797251  0.37995577  0.38333333  1.0
  P  P4492  1  0.18797251  0.50495577  0.38333333  1.0
  P  P4493  1  0.18797251  0.62995577  0.38333333  1.0
  P  P4494  1  0.18797251  0.75495577  0.38333333  1.0
  P  P4495  1  0.18797251  0.87995577  0.38333333  1.0
  P  P4496  1  0.28797251  0.00495577  0.38333333  1.0
  P  P4497  1  0.28797251  0.12995577  0.38333333  1.0
  P  P4498  1  0.28797251  0.25495577  0.38333333  1.0
  P  P4499  1  0.28797251  0.37995577  0.38333333  1.0
  P  P4500  1  0.28797251  0.50495577  0.38333333  1.0
  P  P4501  1  0.28797251  0.62995577  0.38333333  1.0
  P  P4502  1  0.28797251  0.75495577  0.38333333  1.0
  P  P4503  1  0.28797251  0.87995577  0.38333333  1.0
  P  P4504  1  0.38797251  0.00495577  0.38333333  1.0
  P  P4505  1  0.38797251  0.12995577  0.38333333  1.0
  P  P4506  1  0.38797251  0.25495577  0.38333333  1.0
  P  P4507  1  0.38797251  0.37995577  0.38333333  1.0
  P  P4508  1  0.38797251  0.50495577  0.38333333  1.0
  P  P4509  1  0.38797251  0.62995577  0.38333333  1.0
  P  P4510  1  0.38797251  0.75495577  0.38333333  1.0
  P  P4511  1  0.38797251  0.87995577  0.38333333  1.0
  P  P4512  1  0.48797251  0.00495577  0.38333333  1.0
  P  P4513  1  0.48797251  0.12995577  0.38333333  1.0
  P  P4514  1  0.48797251  0.25495577  0.38333333  1.0
  P  P4515  1  0.48797251  0.37995577  0.38333333  1.0
  P  P4516  1  0.48797251  0.50495577  0.38333333  1.0
  P  P4517  1  0.48797251  0.62995577  0.38333333  1.0
  P  P4518  1  0.48797251  0.75495577  0.38333333  1.0
  P  P4519  1  0.48797251  0.87995577  0.38333333  1.0
  P  P4520  1  0.58797251  0.00495577  0.38333333  1.0
  P  P4521  1  0.58797251  0.12995577  0.38333333  1.0
  P  P4522  1  0.58797251  0.25495577  0.38333333  1.0
  P  P4523  1  0.58797251  0.37995577  0.38333333  1.0
  P  P4524  1  0.58797251  0.50495577  0.38333333  1.0
  P  P4525  1  0.58797251  0.62995577  0.38333333  1.0
  P  P4526  1  0.58797251  0.75495577  0.38333333  1.0
  P  P4527  1  0.58797251  0.87995577  0.38333333  1.0
  P  P4528  1  0.68797251  0.00495577  0.38333333  1.0
  P  P4529  1  0.68797251  0.12995577  0.38333333  1.0
  P  P4530  1  0.68797251  0.25495577  0.38333333  1.0
  P  P4531  1  0.68797251  0.37995577  0.38333333  1.0
  P  P4532  1  0.68797251  0.50495577  0.38333333  1.0
  P  P4533  1  0.68797251  0.62995577  0.38333333  1.0
  P  P4534  1  0.68797251  0.75495577  0.38333333  1.0
  P  P4535  1  0.68797251  0.87995577  0.38333333  1.0
  P  P4536  1  0.78797251  0.00495577  0.38333333  1.0
  P  P4537  1  0.78797251  0.12995577  0.38333333  1.0
  P  P4538  1  0.78797251  0.25495577  0.38333333  1.0
  P  P4539  1  0.78797251  0.37995577  0.38333333  1.0
  P  P4540  1  0.78797251  0.50495577  0.38333333  1.0
  P  P4541  1  0.78797251  0.62995577  0.38333333  1.0
  P  P4542  1  0.78797251  0.75495577  0.38333333  1.0
  P  P4543  1  0.78797251  0.87995577  0.38333333  1.0
  P  P4544  1  0.88797251  0.00495577  0.38333333  1.0
  P  P4545  1  0.88797251  0.12995577  0.38333333  1.0
  P  P4546  1  0.88797251  0.25495577  0.38333333  1.0
  P  P4547  1  0.88797251  0.37995577  0.38333333  1.0
  P  P4548  1  0.88797251  0.50495577  0.38333333  1.0
  P  P4549  1  0.88797251  0.62995577  0.38333333  1.0
  P  P4550  1  0.88797251  0.75495577  0.38333333  1.0
  P  P4551  1  0.88797251  0.87995577  0.38333333  1.0
  P  P4552  1  0.98797251  0.00495577  0.38333333  1.0
  P  P4553  1  0.98797251  0.12995577  0.38333333  1.0
  P  P4554  1  0.98797251  0.25495577  0.38333333  1.0
  P  P4555  1  0.98797251  0.37995577  0.38333333  1.0
  P  P4556  1  0.98797251  0.50495577  0.38333333  1.0
  P  P4557  1  0.98797251  0.62995577  0.38333333  1.0
  P  P4558  1  0.98797251  0.75495577  0.38333333  1.0
  P  P4559  1  0.98797251  0.87995577  0.38333333  1.0
  P  P4560  1  0.01202749  0.12004423  0.35000000  1.0
  P  P4561  1  0.01202749  0.24504423  0.35000000  1.0
  P  P4562  1  0.01202749  0.37004423  0.35000000  1.0
  P  P4563  1  0.01202749  0.49504423  0.35000000  1.0
  P  P4564  1  0.01202749  0.62004423  0.35000000  1.0
  P  P4565  1  0.01202749  0.74504423  0.35000000  1.0
  P  P4566  1  0.01202749  0.87004423  0.35000000  1.0
  P  P4567  1  0.01202749  0.99504423  0.35000000  1.0
  P  P4568  1  0.11202749  0.12004423  0.35000000  1.0
  P  P4569  1  0.11202749  0.24504423  0.35000000  1.0
  P  P4570  1  0.11202749  0.37004423  0.35000000  1.0
  P  P4571  1  0.11202749  0.49504423  0.35000000  1.0
  P  P4572  1  0.11202749  0.62004423  0.35000000  1.0
  P  P4573  1  0.11202749  0.74504423  0.35000000  1.0
  P  P4574  1  0.11202749  0.87004423  0.35000000  1.0
  P  P4575  1  0.11202749  0.99504423  0.35000000  1.0
  P  P4576  1  0.21202749  0.12004423  0.35000000  1.0
  P  P4577  1  0.21202749  0.24504423  0.35000000  1.0
  P  P4578  1  0.21202749  0.37004423  0.35000000  1.0
  P  P4579  1  0.21202749  0.49504423  0.35000000  1.0
  P  P4580  1  0.21202749  0.62004423  0.35000000  1.0
  P  P4581  1  0.21202749  0.74504423  0.35000000  1.0
  P  P4582  1  0.21202749  0.87004423  0.35000000  1.0
  P  P4583  1  0.21202749  0.99504423  0.35000000  1.0
  P  P4584  1  0.31202749  0.12004423  0.35000000  1.0
  P  P4585  1  0.31202749  0.24504423  0.35000000  1.0
  P  P4586  1  0.31202749  0.37004423  0.35000000  1.0
  P  P4587  1  0.31202749  0.49504423  0.35000000  1.0
  P  P4588  1  0.31202749  0.62004423  0.35000000  1.0
  P  P4589  1  0.31202749  0.74504423  0.35000000  1.0
  P  P4590  1  0.31202749  0.87004423  0.35000000  1.0
  P  P4591  1  0.31202749  0.99504423  0.35000000  1.0
  P  P4592  1  0.41202749  0.12004423  0.35000000  1.0
  P  P4593  1  0.41202749  0.24504423  0.35000000  1.0
  P  P4594  1  0.41202749  0.37004423  0.35000000  1.0
  P  P4595  1  0.41202749  0.49504423  0.35000000  1.0
  P  P4596  1  0.41202749  0.62004423  0.35000000  1.0
  P  P4597  1  0.41202749  0.74504423  0.35000000  1.0
  P  P4598  1  0.41202749  0.87004423  0.35000000  1.0
  P  P4599  1  0.41202749  0.99504423  0.35000000  1.0
  P  P4600  1  0.51202749  0.12004423  0.35000000  1.0
  P  P4601  1  0.51202749  0.24504423  0.35000000  1.0
  P  P4602  1  0.51202749  0.37004423  0.35000000  1.0
  P  P4603  1  0.51202749  0.49504423  0.35000000  1.0
  P  P4604  1  0.51202749  0.62004423  0.35000000  1.0
  P  P4605  1  0.51202749  0.74504423  0.35000000  1.0
  P  P4606  1  0.51202749  0.87004423  0.35000000  1.0
  P  P4607  1  0.51202749  0.99504423  0.35000000  1.0
  P  P4608  1  0.61202749  0.12004423  0.35000000  1.0
  P  P4609  1  0.61202749  0.24504423  0.35000000  1.0
  P  P4610  1  0.61202749  0.37004423  0.35000000  1.0
  P  P4611  1  0.61202749  0.49504423  0.35000000  1.0
  P  P4612  1  0.61202749  0.62004423  0.35000000  1.0
  P  P4613  1  0.61202749  0.74504423  0.35000000  1.0
  P  P4614  1  0.61202749  0.87004423  0.35000000  1.0
  P  P4615  1  0.61202749  0.99504423  0.35000000  1.0
  P  P4616  1  0.71202749  0.12004423  0.35000000  1.0
  P  P4617  1  0.71202749  0.24504423  0.35000000  1.0
  P  P4618  1  0.71202749  0.37004423  0.35000000  1.0
  P  P4619  1  0.71202749  0.49504423  0.35000000  1.0
  P  P4620  1  0.71202749  0.62004423  0.35000000  1.0
  P  P4621  1  0.71202749  0.74504423  0.35000000  1.0
  P  P4622  1  0.71202749  0.87004423  0.35000000  1.0
  P  P4623  1  0.71202749  0.99504423  0.35000000  1.0
  P  P4624  1  0.81202749  0.12004423  0.35000000  1.0
  P  P4625  1  0.81202749  0.24504423  0.35000000  1.0
  P  P4626  1  0.81202749  0.37004423  0.35000000  1.0
  P  P4627  1  0.81202749  0.49504423  0.35000000  1.0
  P  P4628  1  0.81202749  0.62004423  0.35000000  1.0
  P  P4629  1  0.81202749  0.74504423  0.35000000  1.0
  P  P4630  1  0.81202749  0.87004423  0.35000000  1.0
  P  P4631  1  0.81202749  0.99504423  0.35000000  1.0
  P  P4632  1  0.91202749  0.12004423  0.35000000  1.0
  P  P4633  1  0.91202749  0.24504423  0.35000000  1.0
  P  P4634  1  0.91202749  0.37004423  0.35000000  1.0
  P  P4635  1  0.91202749  0.49504423  0.35000000  1.0
  P  P4636  1  0.91202749  0.62004423  0.35000000  1.0
  P  P4637  1  0.91202749  0.74504423  0.35000000  1.0
  P  P4638  1  0.91202749  0.87004423  0.35000000  1.0
  P  P4639  1  0.91202749  0.99504423  0.35000000  1.0
  P  P4640  1  0.03797251  0.05754423  0.38333333  1.0
  P  P4641  1  0.03797251  0.18254423  0.38333333  1.0
  P  P4642  1  0.03797251  0.30754423  0.38333333  1.0
  P  P4643  1  0.03797251  0.43254423  0.38333333  1.0
  P  P4644  1  0.03797251  0.55754423  0.38333333  1.0
  P  P4645  1  0.03797251  0.68254423  0.38333333  1.0
  P  P4646  1  0.03797251  0.80754423  0.38333333  1.0
  P  P4647  1  0.03797251  0.93254423  0.38333333  1.0
  P  P4648  1  0.13797251  0.05754423  0.38333333  1.0
  P  P4649  1  0.13797251  0.18254423  0.38333333  1.0
  P  P4650  1  0.13797251  0.30754423  0.38333333  1.0
  P  P4651  1  0.13797251  0.43254423  0.38333333  1.0
  P  P4652  1  0.13797251  0.55754423  0.38333333  1.0
  P  P4653  1  0.13797251  0.68254423  0.38333333  1.0
  P  P4654  1  0.13797251  0.80754423  0.38333333  1.0
  P  P4655  1  0.13797251  0.93254423  0.38333333  1.0
  P  P4656  1  0.23797251  0.05754423  0.38333333  1.0
  P  P4657  1  0.23797251  0.18254423  0.38333333  1.0
  P  P4658  1  0.23797251  0.30754423  0.38333333  1.0
  P  P4659  1  0.23797251  0.43254423  0.38333333  1.0
  P  P4660  1  0.23797251  0.55754423  0.38333333  1.0
  P  P4661  1  0.23797251  0.68254423  0.38333333  1.0
  P  P4662  1  0.23797251  0.80754423  0.38333333  1.0
  P  P4663  1  0.23797251  0.93254423  0.38333333  1.0
  P  P4664  1  0.33797251  0.05754423  0.38333333  1.0
  P  P4665  1  0.33797251  0.18254423  0.38333333  1.0
  P  P4666  1  0.33797251  0.30754423  0.38333333  1.0
  P  P4667  1  0.33797251  0.43254423  0.38333333  1.0
  P  P4668  1  0.33797251  0.55754423  0.38333333  1.0
  P  P4669  1  0.33797251  0.68254423  0.38333333  1.0
  P  P4670  1  0.33797251  0.80754423  0.38333333  1.0
  P  P4671  1  0.33797251  0.93254423  0.38333333  1.0
  P  P4672  1  0.43797251  0.05754423  0.38333333  1.0
  P  P4673  1  0.43797251  0.18254423  0.38333333  1.0
  P  P4674  1  0.43797251  0.30754423  0.38333333  1.0
  P  P4675  1  0.43797251  0.43254423  0.38333333  1.0
  P  P4676  1  0.43797251  0.55754423  0.38333333  1.0
  P  P4677  1  0.43797251  0.68254423  0.38333333  1.0
  P  P4678  1  0.43797251  0.80754423  0.38333333  1.0
  P  P4679  1  0.43797251  0.93254423  0.38333333  1.0
  P  P4680  1  0.53797251  0.05754423  0.38333333  1.0
  P  P4681  1  0.53797251  0.18254423  0.38333333  1.0
  P  P4682  1  0.53797251  0.30754423  0.38333333  1.0
  P  P4683  1  0.53797251  0.43254423  0.38333333  1.0
  P  P4684  1  0.53797251  0.55754423  0.38333333  1.0
  P  P4685  1  0.53797251  0.68254423  0.38333333  1.0
  P  P4686  1  0.53797251  0.80754423  0.38333333  1.0
  P  P4687  1  0.53797251  0.93254423  0.38333333  1.0
  P  P4688  1  0.63797251  0.05754423  0.38333333  1.0
  P  P4689  1  0.63797251  0.18254423  0.38333333  1.0
  P  P4690  1  0.63797251  0.30754423  0.38333333  1.0
  P  P4691  1  0.63797251  0.43254423  0.38333333  1.0
  P  P4692  1  0.63797251  0.55754423  0.38333333  1.0
  P  P4693  1  0.63797251  0.68254423  0.38333333  1.0
  P  P4694  1  0.63797251  0.80754423  0.38333333  1.0
  P  P4695  1  0.63797251  0.93254423  0.38333333  1.0
  P  P4696  1  0.73797251  0.05754423  0.38333333  1.0
  P  P4697  1  0.73797251  0.18254423  0.38333333  1.0
  P  P4698  1  0.73797251  0.30754423  0.38333333  1.0
  P  P4699  1  0.73797251  0.43254423  0.38333333  1.0
  P  P4700  1  0.73797251  0.55754423  0.38333333  1.0
  P  P4701  1  0.73797251  0.68254423  0.38333333  1.0
  P  P4702  1  0.73797251  0.80754423  0.38333333  1.0
  P  P4703  1  0.73797251  0.93254423  0.38333333  1.0
  P  P4704  1  0.83797251  0.05754423  0.38333333  1.0
  P  P4705  1  0.83797251  0.18254423  0.38333333  1.0
  P  P4706  1  0.83797251  0.30754423  0.38333333  1.0
  P  P4707  1  0.83797251  0.43254423  0.38333333  1.0
  P  P4708  1  0.83797251  0.55754423  0.38333333  1.0
  P  P4709  1  0.83797251  0.68254423  0.38333333  1.0
  P  P4710  1  0.83797251  0.80754423  0.38333333  1.0
  P  P4711  1  0.83797251  0.93254423  0.38333333  1.0
  P  P4712  1  0.93797251  0.05754423  0.38333333  1.0
  P  P4713  1  0.93797251  0.18254423  0.38333333  1.0
  P  P4714  1  0.93797251  0.30754423  0.38333333  1.0
  P  P4715  1  0.93797251  0.43254423  0.38333333  1.0
  P  P4716  1  0.93797251  0.55754423  0.38333333  1.0
  P  P4717  1  0.93797251  0.68254423  0.38333333  1.0
  P  P4718  1  0.93797251  0.80754423  0.38333333  1.0
  P  P4719  1  0.93797251  0.93254423  0.38333333  1.0
  P  P4720  1  0.06202749  0.06745577  0.35000000  1.0
  P  P4721  1  0.06202749  0.19245577  0.35000000  1.0
  P  P4722  1  0.06202749  0.31745577  0.35000000  1.0
  P  P4723  1  0.06202749  0.44245577  0.35000000  1.0
  P  P4724  1  0.06202749  0.56745577  0.35000000  1.0
  P  P4725  1  0.06202749  0.69245577  0.35000000  1.0
  P  P4726  1  0.06202749  0.81745577  0.35000000  1.0
  P  P4727  1  0.06202749  0.94245577  0.35000000  1.0
  P  P4728  1  0.16202749  0.06745577  0.35000000  1.0
  P  P4729  1  0.16202749  0.19245577  0.35000000  1.0
  P  P4730  1  0.16202749  0.31745577  0.35000000  1.0
  P  P4731  1  0.16202749  0.44245577  0.35000000  1.0
  P  P4732  1  0.16202749  0.56745577  0.35000000  1.0
  P  P4733  1  0.16202749  0.69245577  0.35000000  1.0
  P  P4734  1  0.16202749  0.81745577  0.35000000  1.0
  P  P4735  1  0.16202749  0.94245577  0.35000000  1.0
  P  P4736  1  0.26202749  0.06745577  0.35000000  1.0
  P  P4737  1  0.26202749  0.19245577  0.35000000  1.0
  P  P4738  1  0.26202749  0.31745577  0.35000000  1.0
  P  P4739  1  0.26202749  0.44245577  0.35000000  1.0
  P  P4740  1  0.26202749  0.56745577  0.35000000  1.0
  P  P4741  1  0.26202749  0.69245577  0.35000000  1.0
  P  P4742  1  0.26202749  0.81745577  0.35000000  1.0
  P  P4743  1  0.26202749  0.94245577  0.35000000  1.0
  P  P4744  1  0.36202749  0.06745577  0.35000000  1.0
  P  P4745  1  0.36202749  0.19245577  0.35000000  1.0
  P  P4746  1  0.36202749  0.31745577  0.35000000  1.0
  P  P4747  1  0.36202749  0.44245577  0.35000000  1.0
  P  P4748  1  0.36202749  0.56745577  0.35000000  1.0
  P  P4749  1  0.36202749  0.69245577  0.35000000  1.0
  P  P4750  1  0.36202749  0.81745577  0.35000000  1.0
  P  P4751  1  0.36202749  0.94245577  0.35000000  1.0
  P  P4752  1  0.46202749  0.06745577  0.35000000  1.0
  P  P4753  1  0.46202749  0.19245577  0.35000000  1.0
  P  P4754  1  0.46202749  0.31745577  0.35000000  1.0
  P  P4755  1  0.46202749  0.44245577  0.35000000  1.0
  P  P4756  1  0.46202749  0.56745577  0.35000000  1.0
  P  P4757  1  0.46202749  0.69245577  0.35000000  1.0
  P  P4758  1  0.46202749  0.81745577  0.35000000  1.0
  P  P4759  1  0.46202749  0.94245577  0.35000000  1.0
  P  P4760  1  0.56202749  0.06745577  0.35000000  1.0
  P  P4761  1  0.56202749  0.19245577  0.35000000  1.0
  P  P4762  1  0.56202749  0.31745577  0.35000000  1.0
  P  P4763  1  0.56202749  0.44245577  0.35000000  1.0
  P  P4764  1  0.56202749  0.56745577  0.35000000  1.0
  P  P4765  1  0.56202749  0.69245577  0.35000000  1.0
  P  P4766  1  0.56202749  0.81745577  0.35000000  1.0
  P  P4767  1  0.56202749  0.94245577  0.35000000  1.0
  P  P4768  1  0.66202749  0.06745577  0.35000000  1.0
  P  P4769  1  0.66202749  0.19245577  0.35000000  1.0
  P  P4770  1  0.66202749  0.31745577  0.35000000  1.0
  P  P4771  1  0.66202749  0.44245577  0.35000000  1.0
  P  P4772  1  0.66202749  0.56745577  0.35000000  1.0
  P  P4773  1  0.66202749  0.69245577  0.35000000  1.0
  P  P4774  1  0.66202749  0.81745577  0.35000000  1.0
  P  P4775  1  0.66202749  0.94245577  0.35000000  1.0
  P  P4776  1  0.76202749  0.06745577  0.35000000  1.0
  P  P4777  1  0.76202749  0.19245577  0.35000000  1.0
  P  P4778  1  0.76202749  0.31745577  0.35000000  1.0
  P  P4779  1  0.76202749  0.44245577  0.35000000  1.0
  P  P4780  1  0.76202749  0.56745577  0.35000000  1.0
  P  P4781  1  0.76202749  0.69245577  0.35000000  1.0
  P  P4782  1  0.76202749  0.81745577  0.35000000  1.0
  P  P4783  1  0.76202749  0.94245577  0.35000000  1.0
  P  P4784  1  0.86202749  0.06745577  0.35000000  1.0
  P  P4785  1  0.86202749  0.19245577  0.35000000  1.0
  P  P4786  1  0.86202749  0.31745577  0.35000000  1.0
  P  P4787  1  0.86202749  0.44245577  0.35000000  1.0
  P  P4788  1  0.86202749  0.56745577  0.35000000  1.0
  P  P4789  1  0.86202749  0.69245577  0.35000000  1.0
  P  P4790  1  0.86202749  0.81745577  0.35000000  1.0
  P  P4791  1  0.86202749  0.94245577  0.35000000  1.0
  P  P4792  1  0.96202749  0.06745577  0.35000000  1.0
  P  P4793  1  0.96202749  0.19245577  0.35000000  1.0
  P  P4794  1  0.96202749  0.31745577  0.35000000  1.0
  P  P4795  1  0.96202749  0.44245577  0.35000000  1.0
  P  P4796  1  0.96202749  0.56745577  0.35000000  1.0
  P  P4797  1  0.96202749  0.69245577  0.35000000  1.0
  P  P4798  1  0.96202749  0.81745577  0.35000000  1.0
  P  P4799  1  0.96202749  0.94245577  0.35000000  1.0
  P  P4800  1  0.05878854  0.01712191  0.41666667  1.0
  P  P4801  1  0.05878854  0.14212191  0.41666667  1.0
  P  P4802  1  0.05878854  0.26712191  0.41666667  1.0
  P  P4803  1  0.05878854  0.39212191  0.41666667  1.0
  P  P4804  1  0.05878854  0.51712191  0.41666667  1.0
  P  P4805  1  0.05878854  0.64212191  0.41666667  1.0
  P  P4806  1  0.05878854  0.76712191  0.41666667  1.0
  P  P4807  1  0.05878854  0.89212191  0.41666667  1.0
  P  P4808  1  0.15878854  0.01712191  0.41666667  1.0
  P  P4809  1  0.15878854  0.14212191  0.41666667  1.0
  P  P4810  1  0.15878854  0.26712191  0.41666667  1.0
  P  P4811  1  0.15878854  0.39212191  0.41666667  1.0
  P  P4812  1  0.15878854  0.51712191  0.41666667  1.0
  P  P4813  1  0.15878854  0.64212191  0.41666667  1.0
  P  P4814  1  0.15878854  0.76712191  0.41666667  1.0
  P  P4815  1  0.15878854  0.89212191  0.41666667  1.0
  P  P4816  1  0.25878854  0.01712191  0.41666667  1.0
  P  P4817  1  0.25878854  0.14212191  0.41666667  1.0
  P  P4818  1  0.25878854  0.26712191  0.41666667  1.0
  P  P4819  1  0.25878854  0.39212191  0.41666667  1.0
  P  P4820  1  0.25878854  0.51712191  0.41666667  1.0
  P  P4821  1  0.25878854  0.64212191  0.41666667  1.0
  P  P4822  1  0.25878854  0.76712191  0.41666667  1.0
  P  P4823  1  0.25878854  0.89212191  0.41666667  1.0
  P  P4824  1  0.35878854  0.01712191  0.41666667  1.0
  P  P4825  1  0.35878854  0.14212191  0.41666667  1.0
  P  P4826  1  0.35878854  0.26712191  0.41666667  1.0
  P  P4827  1  0.35878854  0.39212191  0.41666667  1.0
  P  P4828  1  0.35878854  0.51712191  0.41666667  1.0
  P  P4829  1  0.35878854  0.64212191  0.41666667  1.0
  P  P4830  1  0.35878854  0.76712191  0.41666667  1.0
  P  P4831  1  0.35878854  0.89212191  0.41666667  1.0
  P  P4832  1  0.45878854  0.01712191  0.41666667  1.0
  P  P4833  1  0.45878854  0.14212191  0.41666667  1.0
  P  P4834  1  0.45878854  0.26712191  0.41666667  1.0
  P  P4835  1  0.45878854  0.39212191  0.41666667  1.0
  P  P4836  1  0.45878854  0.51712191  0.41666667  1.0
  P  P4837  1  0.45878854  0.64212191  0.41666667  1.0
  P  P4838  1  0.45878854  0.76712191  0.41666667  1.0
  P  P4839  1  0.45878854  0.89212191  0.41666667  1.0
  P  P4840  1  0.55878854  0.01712191  0.41666667  1.0
  P  P4841  1  0.55878854  0.14212191  0.41666667  1.0
  P  P4842  1  0.55878854  0.26712191  0.41666667  1.0
  P  P4843  1  0.55878854  0.39212191  0.41666667  1.0
  P  P4844  1  0.55878854  0.51712191  0.41666667  1.0
  P  P4845  1  0.55878854  0.64212191  0.41666667  1.0
  P  P4846  1  0.55878854  0.76712191  0.41666667  1.0
  P  P4847  1  0.55878854  0.89212191  0.41666667  1.0
  P  P4848  1  0.65878854  0.01712191  0.41666667  1.0
  P  P4849  1  0.65878854  0.14212191  0.41666667  1.0
  P  P4850  1  0.65878854  0.26712191  0.41666667  1.0
  P  P4851  1  0.65878854  0.39212191  0.41666667  1.0
  P  P4852  1  0.65878854  0.51712191  0.41666667  1.0
  P  P4853  1  0.65878854  0.64212191  0.41666667  1.0
  P  P4854  1  0.65878854  0.76712191  0.41666667  1.0
  P  P4855  1  0.65878854  0.89212191  0.41666667  1.0
  P  P4856  1  0.75878854  0.01712191  0.41666667  1.0
  P  P4857  1  0.75878854  0.14212191  0.41666667  1.0
  P  P4858  1  0.75878854  0.26712191  0.41666667  1.0
  P  P4859  1  0.75878854  0.39212191  0.41666667  1.0
  P  P4860  1  0.75878854  0.51712191  0.41666667  1.0
  P  P4861  1  0.75878854  0.64212191  0.41666667  1.0
  P  P4862  1  0.75878854  0.76712191  0.41666667  1.0
  P  P4863  1  0.75878854  0.89212191  0.41666667  1.0
  P  P4864  1  0.85878854  0.01712191  0.41666667  1.0
  P  P4865  1  0.85878854  0.14212191  0.41666667  1.0
  P  P4866  1  0.85878854  0.26712191  0.41666667  1.0
  P  P4867  1  0.85878854  0.39212191  0.41666667  1.0
  P  P4868  1  0.85878854  0.51712191  0.41666667  1.0
  P  P4869  1  0.85878854  0.64212191  0.41666667  1.0
  P  P4870  1  0.85878854  0.76712191  0.41666667  1.0
  P  P4871  1  0.85878854  0.89212191  0.41666667  1.0
  P  P4872  1  0.95878854  0.01712191  0.41666667  1.0
  P  P4873  1  0.95878854  0.14212191  0.41666667  1.0
  P  P4874  1  0.95878854  0.26712191  0.41666667  1.0
  P  P4875  1  0.95878854  0.39212191  0.41666667  1.0
  P  P4876  1  0.95878854  0.51712191  0.41666667  1.0
  P  P4877  1  0.95878854  0.64212191  0.41666667  1.0
  P  P4878  1  0.95878854  0.76712191  0.41666667  1.0
  P  P4879  1  0.95878854  0.89212191  0.41666667  1.0
  P  P4880  1  0.04121146  0.10787809  0.45000000  1.0
  P  P4881  1  0.04121146  0.23287809  0.45000000  1.0
  P  P4882  1  0.04121146  0.35787809  0.45000000  1.0
  P  P4883  1  0.04121146  0.48287809  0.45000000  1.0
  P  P4884  1  0.04121146  0.60787809  0.45000000  1.0
  P  P4885  1  0.04121146  0.73287809  0.45000000  1.0
  P  P4886  1  0.04121146  0.85787809  0.45000000  1.0
  P  P4887  1  0.04121146  0.98287809  0.45000000  1.0
  P  P4888  1  0.14121146  0.10787809  0.45000000  1.0
  P  P4889  1  0.14121146  0.23287809  0.45000000  1.0
  P  P4890  1  0.14121146  0.35787809  0.45000000  1.0
  P  P4891  1  0.14121146  0.48287809  0.45000000  1.0
  P  P4892  1  0.14121146  0.60787809  0.45000000  1.0
  P  P4893  1  0.14121146  0.73287809  0.45000000  1.0
  P  P4894  1  0.14121146  0.85787809  0.45000000  1.0
  P  P4895  1  0.14121146  0.98287809  0.45000000  1.0
  P  P4896  1  0.24121146  0.10787809  0.45000000  1.0
  P  P4897  1  0.24121146  0.23287809  0.45000000  1.0
  P  P4898  1  0.24121146  0.35787809  0.45000000  1.0
  P  P4899  1  0.24121146  0.48287809  0.45000000  1.0
  P  P4900  1  0.24121146  0.60787809  0.45000000  1.0
  P  P4901  1  0.24121146  0.73287809  0.45000000  1.0
  P  P4902  1  0.24121146  0.85787809  0.45000000  1.0
  P  P4903  1  0.24121146  0.98287809  0.45000000  1.0
  P  P4904  1  0.34121146  0.10787809  0.45000000  1.0
  P  P4905  1  0.34121146  0.23287809  0.45000000  1.0
  P  P4906  1  0.34121146  0.35787809  0.45000000  1.0
  P  P4907  1  0.34121146  0.48287809  0.45000000  1.0
  P  P4908  1  0.34121146  0.60787809  0.45000000  1.0
  P  P4909  1  0.34121146  0.73287809  0.45000000  1.0
  P  P4910  1  0.34121146  0.85787809  0.45000000  1.0
  P  P4911  1  0.34121146  0.98287809  0.45000000  1.0
  P  P4912  1  0.44121146  0.10787809  0.45000000  1.0
  P  P4913  1  0.44121146  0.23287809  0.45000000  1.0
  P  P4914  1  0.44121146  0.35787809  0.45000000  1.0
  P  P4915  1  0.44121146  0.48287809  0.45000000  1.0
  P  P4916  1  0.44121146  0.60787809  0.45000000  1.0
  P  P4917  1  0.44121146  0.73287809  0.45000000  1.0
  P  P4918  1  0.44121146  0.85787809  0.45000000  1.0
  P  P4919  1  0.44121146  0.98287809  0.45000000  1.0
  P  P4920  1  0.54121146  0.10787809  0.45000000  1.0
  P  P4921  1  0.54121146  0.23287809  0.45000000  1.0
  P  P4922  1  0.54121146  0.35787809  0.45000000  1.0
  P  P4923  1  0.54121146  0.48287809  0.45000000  1.0
  P  P4924  1  0.54121146  0.60787809  0.45000000  1.0
  P  P4925  1  0.54121146  0.73287809  0.45000000  1.0
  P  P4926  1  0.54121146  0.85787809  0.45000000  1.0
  P  P4927  1  0.54121146  0.98287809  0.45000000  1.0
  P  P4928  1  0.64121146  0.10787809  0.45000000  1.0
  P  P4929  1  0.64121146  0.23287809  0.45000000  1.0
  P  P4930  1  0.64121146  0.35787809  0.45000000  1.0
  P  P4931  1  0.64121146  0.48287809  0.45000000  1.0
  P  P4932  1  0.64121146  0.60787809  0.45000000  1.0
  P  P4933  1  0.64121146  0.73287809  0.45000000  1.0
  P  P4934  1  0.64121146  0.85787809  0.45000000  1.0
  P  P4935  1  0.64121146  0.98287809  0.45000000  1.0
  P  P4936  1  0.74121146  0.10787809  0.45000000  1.0
  P  P4937  1  0.74121146  0.23287809  0.45000000  1.0
  P  P4938  1  0.74121146  0.35787809  0.45000000  1.0
  P  P4939  1  0.74121146  0.48287809  0.45000000  1.0
  P  P4940  1  0.74121146  0.60787809  0.45000000  1.0
  P  P4941  1  0.74121146  0.73287809  0.45000000  1.0
  P  P4942  1  0.74121146  0.85787809  0.45000000  1.0
  P  P4943  1  0.74121146  0.98287809  0.45000000  1.0
  P  P4944  1  0.84121146  0.10787809  0.45000000  1.0
  P  P4945  1  0.84121146  0.23287809  0.45000000  1.0
  P  P4946  1  0.84121146  0.35787809  0.45000000  1.0
  P  P4947  1  0.84121146  0.48287809  0.45000000  1.0
  P  P4948  1  0.84121146  0.60787809  0.45000000  1.0
  P  P4949  1  0.84121146  0.73287809  0.45000000  1.0
  P  P4950  1  0.84121146  0.85787809  0.45000000  1.0
  P  P4951  1  0.84121146  0.98287809  0.45000000  1.0
  P  P4952  1  0.94121146  0.10787809  0.45000000  1.0
  P  P4953  1  0.94121146  0.23287809  0.45000000  1.0
  P  P4954  1  0.94121146  0.35787809  0.45000000  1.0
  P  P4955  1  0.94121146  0.48287809  0.45000000  1.0
  P  P4956  1  0.94121146  0.60787809  0.45000000  1.0
  P  P4957  1  0.94121146  0.73287809  0.45000000  1.0
  P  P4958  1  0.94121146  0.85787809  0.45000000  1.0
  P  P4959  1  0.94121146  0.98287809  0.45000000  1.0
  P  P4960  1  0.00878854  0.04537809  0.41666667  1.0
  P  P4961  1  0.00878854  0.17037809  0.41666667  1.0
  P  P4962  1  0.00878854  0.29537809  0.41666667  1.0
  P  P4963  1  0.00878854  0.42037809  0.41666667  1.0
  P  P4964  1  0.00878854  0.54537809  0.41666667  1.0
  P  P4965  1  0.00878854  0.67037809  0.41666667  1.0
  P  P4966  1  0.00878854  0.79537809  0.41666667  1.0
  P  P4967  1  0.00878854  0.92037809  0.41666667  1.0
  P  P4968  1  0.10878854  0.04537809  0.41666667  1.0
  P  P4969  1  0.10878854  0.17037809  0.41666667  1.0
  P  P4970  1  0.10878854  0.29537809  0.41666667  1.0
  P  P4971  1  0.10878854  0.42037809  0.41666667  1.0
  P  P4972  1  0.10878854  0.54537809  0.41666667  1.0
  P  P4973  1  0.10878854  0.67037809  0.41666667  1.0
  P  P4974  1  0.10878854  0.79537809  0.41666667  1.0
  P  P4975  1  0.10878854  0.92037809  0.41666667  1.0
  P  P4976  1  0.20878854  0.04537809  0.41666667  1.0
  P  P4977  1  0.20878854  0.17037809  0.41666667  1.0
  P  P4978  1  0.20878854  0.29537809  0.41666667  1.0
  P  P4979  1  0.20878854  0.42037809  0.41666667  1.0
  P  P4980  1  0.20878854  0.54537809  0.41666667  1.0
  P  P4981  1  0.20878854  0.67037809  0.41666667  1.0
  P  P4982  1  0.20878854  0.79537809  0.41666667  1.0
  P  P4983  1  0.20878854  0.92037809  0.41666667  1.0
  P  P4984  1  0.30878854  0.04537809  0.41666667  1.0
  P  P4985  1  0.30878854  0.17037809  0.41666667  1.0
  P  P4986  1  0.30878854  0.29537809  0.41666667  1.0
  P  P4987  1  0.30878854  0.42037809  0.41666667  1.0
  P  P4988  1  0.30878854  0.54537809  0.41666667  1.0
  P  P4989  1  0.30878854  0.67037809  0.41666667  1.0
  P  P4990  1  0.30878854  0.79537809  0.41666667  1.0
  P  P4991  1  0.30878854  0.92037809  0.41666667  1.0
  P  P4992  1  0.40878854  0.04537809  0.41666667  1.0
  P  P4993  1  0.40878854  0.17037809  0.41666667  1.0
  P  P4994  1  0.40878854  0.29537809  0.41666667  1.0
  P  P4995  1  0.40878854  0.42037809  0.41666667  1.0
  P  P4996  1  0.40878854  0.54537809  0.41666667  1.0
  P  P4997  1  0.40878854  0.67037809  0.41666667  1.0
  P  P4998  1  0.40878854  0.79537809  0.41666667  1.0
  P  P4999  1  0.40878854  0.92037809  0.41666667  1.0
  P  P5000  1  0.50878854  0.04537809  0.41666667  1.0
  P  P5001  1  0.50878854  0.17037809  0.41666667  1.0
  P  P5002  1  0.50878854  0.29537809  0.41666667  1.0
  P  P5003  1  0.50878854  0.42037809  0.41666667  1.0
  P  P5004  1  0.50878854  0.54537809  0.41666667  1.0
  P  P5005  1  0.50878854  0.67037809  0.41666667  1.0
  P  P5006  1  0.50878854  0.79537809  0.41666667  1.0
  P  P5007  1  0.50878854  0.92037809  0.41666667  1.0
  P  P5008  1  0.60878854  0.04537809  0.41666667  1.0
  P  P5009  1  0.60878854  0.17037809  0.41666667  1.0
  P  P5010  1  0.60878854  0.29537809  0.41666667  1.0
  P  P5011  1  0.60878854  0.42037809  0.41666667  1.0
  P  P5012  1  0.60878854  0.54537809  0.41666667  1.0
  P  P5013  1  0.60878854  0.67037809  0.41666667  1.0
  P  P5014  1  0.60878854  0.79537809  0.41666667  1.0
  P  P5015  1  0.60878854  0.92037809  0.41666667  1.0
  P  P5016  1  0.70878854  0.04537809  0.41666667  1.0
  P  P5017  1  0.70878854  0.17037809  0.41666667  1.0
  P  P5018  1  0.70878854  0.29537809  0.41666667  1.0
  P  P5019  1  0.70878854  0.42037809  0.41666667  1.0
  P  P5020  1  0.70878854  0.54537809  0.41666667  1.0
  P  P5021  1  0.70878854  0.67037809  0.41666667  1.0
  P  P5022  1  0.70878854  0.79537809  0.41666667  1.0
  P  P5023  1  0.70878854  0.92037809  0.41666667  1.0
  P  P5024  1  0.80878854  0.04537809  0.41666667  1.0
  P  P5025  1  0.80878854  0.17037809  0.41666667  1.0
  P  P5026  1  0.80878854  0.29537809  0.41666667  1.0
  P  P5027  1  0.80878854  0.42037809  0.41666667  1.0
  P  P5028  1  0.80878854  0.54537809  0.41666667  1.0
  P  P5029  1  0.80878854  0.67037809  0.41666667  1.0
  P  P5030  1  0.80878854  0.79537809  0.41666667  1.0
  P  P5031  1  0.80878854  0.92037809  0.41666667  1.0
  P  P5032  1  0.90878854  0.04537809  0.41666667  1.0
  P  P5033  1  0.90878854  0.17037809  0.41666667  1.0
  P  P5034  1  0.90878854  0.29537809  0.41666667  1.0
  P  P5035  1  0.90878854  0.42037809  0.41666667  1.0
  P  P5036  1  0.90878854  0.54537809  0.41666667  1.0
  P  P5037  1  0.90878854  0.67037809  0.41666667  1.0
  P  P5038  1  0.90878854  0.79537809  0.41666667  1.0
  P  P5039  1  0.90878854  0.92037809  0.41666667  1.0
  P  P5040  1  0.09121146  0.07962191  0.45000000  1.0
  P  P5041  1  0.09121146  0.20462191  0.45000000  1.0
  P  P5042  1  0.09121146  0.32962191  0.45000000  1.0
  P  P5043  1  0.09121146  0.45462191  0.45000000  1.0
  P  P5044  1  0.09121146  0.57962191  0.45000000  1.0
  P  P5045  1  0.09121146  0.70462191  0.45000000  1.0
  P  P5046  1  0.09121146  0.82962191  0.45000000  1.0
  P  P5047  1  0.09121146  0.95462191  0.45000000  1.0
  P  P5048  1  0.19121146  0.07962191  0.45000000  1.0
  P  P5049  1  0.19121146  0.20462191  0.45000000  1.0
  P  P5050  1  0.19121146  0.32962191  0.45000000  1.0
  P  P5051  1  0.19121146  0.45462191  0.45000000  1.0
  P  P5052  1  0.19121146  0.57962191  0.45000000  1.0
  P  P5053  1  0.19121146  0.70462191  0.45000000  1.0
  P  P5054  1  0.19121146  0.82962191  0.45000000  1.0
  P  P5055  1  0.19121146  0.95462191  0.45000000  1.0
  P  P5056  1  0.29121146  0.07962191  0.45000000  1.0
  P  P5057  1  0.29121146  0.20462191  0.45000000  1.0
  P  P5058  1  0.29121146  0.32962191  0.45000000  1.0
  P  P5059  1  0.29121146  0.45462191  0.45000000  1.0
  P  P5060  1  0.29121146  0.57962191  0.45000000  1.0
  P  P5061  1  0.29121146  0.70462191  0.45000000  1.0
  P  P5062  1  0.29121146  0.82962191  0.45000000  1.0
  P  P5063  1  0.29121146  0.95462191  0.45000000  1.0
  P  P5064  1  0.39121146  0.07962191  0.45000000  1.0
  P  P5065  1  0.39121146  0.20462191  0.45000000  1.0
  P  P5066  1  0.39121146  0.32962191  0.45000000  1.0
  P  P5067  1  0.39121146  0.45462191  0.45000000  1.0
  P  P5068  1  0.39121146  0.57962191  0.45000000  1.0
  P  P5069  1  0.39121146  0.70462191  0.45000000  1.0
  P  P5070  1  0.39121146  0.82962191  0.45000000  1.0
  P  P5071  1  0.39121146  0.95462191  0.45000000  1.0
  P  P5072  1  0.49121146  0.07962191  0.45000000  1.0
  P  P5073  1  0.49121146  0.20462191  0.45000000  1.0
  P  P5074  1  0.49121146  0.32962191  0.45000000  1.0
  P  P5075  1  0.49121146  0.45462191  0.45000000  1.0
  P  P5076  1  0.49121146  0.57962191  0.45000000  1.0
  P  P5077  1  0.49121146  0.70462191  0.45000000  1.0
  P  P5078  1  0.49121146  0.82962191  0.45000000  1.0
  P  P5079  1  0.49121146  0.95462191  0.45000000  1.0
  P  P5080  1  0.59121146  0.07962191  0.45000000  1.0
  P  P5081  1  0.59121146  0.20462191  0.45000000  1.0
  P  P5082  1  0.59121146  0.32962191  0.45000000  1.0
  P  P5083  1  0.59121146  0.45462191  0.45000000  1.0
  P  P5084  1  0.59121146  0.57962191  0.45000000  1.0
  P  P5085  1  0.59121146  0.70462191  0.45000000  1.0
  P  P5086  1  0.59121146  0.82962191  0.45000000  1.0
  P  P5087  1  0.59121146  0.95462191  0.45000000  1.0
  P  P5088  1  0.69121146  0.07962191  0.45000000  1.0
  P  P5089  1  0.69121146  0.20462191  0.45000000  1.0
  P  P5090  1  0.69121146  0.32962191  0.45000000  1.0
  P  P5091  1  0.69121146  0.45462191  0.45000000  1.0
  P  P5092  1  0.69121146  0.57962191  0.45000000  1.0
  P  P5093  1  0.69121146  0.70462191  0.45000000  1.0
  P  P5094  1  0.69121146  0.82962191  0.45000000  1.0
  P  P5095  1  0.69121146  0.95462191  0.45000000  1.0
  P  P5096  1  0.79121146  0.07962191  0.45000000  1.0
  P  P5097  1  0.79121146  0.20462191  0.45000000  1.0
  P  P5098  1  0.79121146  0.32962191  0.45000000  1.0
  P  P5099  1  0.79121146  0.45462191  0.45000000  1.0
  P  P5100  1  0.79121146  0.57962191  0.45000000  1.0
  P  P5101  1  0.79121146  0.70462191  0.45000000  1.0
  P  P5102  1  0.79121146  0.82962191  0.45000000  1.0
  P  P5103  1  0.79121146  0.95462191  0.45000000  1.0
  P  P5104  1  0.89121146  0.07962191  0.45000000  1.0
  P  P5105  1  0.89121146  0.20462191  0.45000000  1.0
  P  P5106  1  0.89121146  0.32962191  0.45000000  1.0
  P  P5107  1  0.89121146  0.45462191  0.45000000  1.0
  P  P5108  1  0.89121146  0.57962191  0.45000000  1.0
  P  P5109  1  0.89121146  0.70462191  0.45000000  1.0
  P  P5110  1  0.89121146  0.82962191  0.45000000  1.0
  P  P5111  1  0.89121146  0.95462191  0.45000000  1.0
  P  P5112  1  0.99121146  0.07962191  0.45000000  1.0
  P  P5113  1  0.99121146  0.20462191  0.45000000  1.0
  P  P5114  1  0.99121146  0.32962191  0.45000000  1.0
  P  P5115  1  0.99121146  0.45462191  0.45000000  1.0
  P  P5116  1  0.99121146  0.57962191  0.45000000  1.0
  P  P5117  1  0.99121146  0.70462191  0.45000000  1.0
  P  P5118  1  0.99121146  0.82962191  0.45000000  1.0
  P  P5119  1  0.99121146  0.95462191  0.45000000  1.0
  P  P5120  1  0.08797251  0.00495577  0.45000000  1.0
  P  P5121  1  0.08797251  0.12995577  0.45000000  1.0
  P  P5122  1  0.08797251  0.25495577  0.45000000  1.0
  P  P5123  1  0.08797251  0.37995577  0.45000000  1.0
  P  P5124  1  0.08797251  0.50495577  0.45000000  1.0
  P  P5125  1  0.08797251  0.62995577  0.45000000  1.0
  P  P5126  1  0.08797251  0.75495577  0.45000000  1.0
  P  P5127  1  0.08797251  0.87995577  0.45000000  1.0
  P  P5128  1  0.18797251  0.00495577  0.45000000  1.0
  P  P5129  1  0.18797251  0.12995577  0.45000000  1.0
  P  P5130  1  0.18797251  0.25495577  0.45000000  1.0
  P  P5131  1  0.18797251  0.37995577  0.45000000  1.0
  P  P5132  1  0.18797251  0.50495577  0.45000000  1.0
  P  P5133  1  0.18797251  0.62995577  0.45000000  1.0
  P  P5134  1  0.18797251  0.75495577  0.45000000  1.0
  P  P5135  1  0.18797251  0.87995577  0.45000000  1.0
  P  P5136  1  0.28797251  0.00495577  0.45000000  1.0
  P  P5137  1  0.28797251  0.12995577  0.45000000  1.0
  P  P5138  1  0.28797251  0.25495577  0.45000000  1.0
  P  P5139  1  0.28797251  0.37995577  0.45000000  1.0
  P  P5140  1  0.28797251  0.50495577  0.45000000  1.0
  P  P5141  1  0.28797251  0.62995577  0.45000000  1.0
  P  P5142  1  0.28797251  0.75495577  0.45000000  1.0
  P  P5143  1  0.28797251  0.87995577  0.45000000  1.0
  P  P5144  1  0.38797251  0.00495577  0.45000000  1.0
  P  P5145  1  0.38797251  0.12995577  0.45000000  1.0
  P  P5146  1  0.38797251  0.25495577  0.45000000  1.0
  P  P5147  1  0.38797251  0.37995577  0.45000000  1.0
  P  P5148  1  0.38797251  0.50495577  0.45000000  1.0
  P  P5149  1  0.38797251  0.62995577  0.45000000  1.0
  P  P5150  1  0.38797251  0.75495577  0.45000000  1.0
  P  P5151  1  0.38797251  0.87995577  0.45000000  1.0
  P  P5152  1  0.48797251  0.00495577  0.45000000  1.0
  P  P5153  1  0.48797251  0.12995577  0.45000000  1.0
  P  P5154  1  0.48797251  0.25495577  0.45000000  1.0
  P  P5155  1  0.48797251  0.37995577  0.45000000  1.0
  P  P5156  1  0.48797251  0.50495577  0.45000000  1.0
  P  P5157  1  0.48797251  0.62995577  0.45000000  1.0
  P  P5158  1  0.48797251  0.75495577  0.45000000  1.0
  P  P5159  1  0.48797251  0.87995577  0.45000000  1.0
  P  P5160  1  0.58797251  0.00495577  0.45000000  1.0
  P  P5161  1  0.58797251  0.12995577  0.45000000  1.0
  P  P5162  1  0.58797251  0.25495577  0.45000000  1.0
  P  P5163  1  0.58797251  0.37995577  0.45000000  1.0
  P  P5164  1  0.58797251  0.50495577  0.45000000  1.0
  P  P5165  1  0.58797251  0.62995577  0.45000000  1.0
  P  P5166  1  0.58797251  0.75495577  0.45000000  1.0
  P  P5167  1  0.58797251  0.87995577  0.45000000  1.0
  P  P5168  1  0.68797251  0.00495577  0.45000000  1.0
  P  P5169  1  0.68797251  0.12995577  0.45000000  1.0
  P  P5170  1  0.68797251  0.25495577  0.45000000  1.0
  P  P5171  1  0.68797251  0.37995577  0.45000000  1.0
  P  P5172  1  0.68797251  0.50495577  0.45000000  1.0
  P  P5173  1  0.68797251  0.62995577  0.45000000  1.0
  P  P5174  1  0.68797251  0.75495577  0.45000000  1.0
  P  P5175  1  0.68797251  0.87995577  0.45000000  1.0
  P  P5176  1  0.78797251  0.00495577  0.45000000  1.0
  P  P5177  1  0.78797251  0.12995577  0.45000000  1.0
  P  P5178  1  0.78797251  0.25495577  0.45000000  1.0
  P  P5179  1  0.78797251  0.37995577  0.45000000  1.0
  P  P5180  1  0.78797251  0.50495577  0.45000000  1.0
  P  P5181  1  0.78797251  0.62995577  0.45000000  1.0
  P  P5182  1  0.78797251  0.75495577  0.45000000  1.0
  P  P5183  1  0.78797251  0.87995577  0.45000000  1.0
  P  P5184  1  0.88797251  0.00495577  0.45000000  1.0
  P  P5185  1  0.88797251  0.12995577  0.45000000  1.0
  P  P5186  1  0.88797251  0.25495577  0.45000000  1.0
  P  P5187  1  0.88797251  0.37995577  0.45000000  1.0
  P  P5188  1  0.88797251  0.50495577  0.45000000  1.0
  P  P5189  1  0.88797251  0.62995577  0.45000000  1.0
  P  P5190  1  0.88797251  0.75495577  0.45000000  1.0
  P  P5191  1  0.88797251  0.87995577  0.45000000  1.0
  P  P5192  1  0.98797251  0.00495577  0.45000000  1.0
  P  P5193  1  0.98797251  0.12995577  0.45000000  1.0
  P  P5194  1  0.98797251  0.25495577  0.45000000  1.0
  P  P5195  1  0.98797251  0.37995577  0.45000000  1.0
  P  P5196  1  0.98797251  0.50495577  0.45000000  1.0
  P  P5197  1  0.98797251  0.62995577  0.45000000  1.0
  P  P5198  1  0.98797251  0.75495577  0.45000000  1.0
  P  P5199  1  0.98797251  0.87995577  0.45000000  1.0
  P  P5200  1  0.01202749  0.12004423  0.41666667  1.0
  P  P5201  1  0.01202749  0.24504423  0.41666667  1.0
  P  P5202  1  0.01202749  0.37004423  0.41666667  1.0
  P  P5203  1  0.01202749  0.49504423  0.41666667  1.0
  P  P5204  1  0.01202749  0.62004423  0.41666667  1.0
  P  P5205  1  0.01202749  0.74504423  0.41666667  1.0
  P  P5206  1  0.01202749  0.87004423  0.41666667  1.0
  P  P5207  1  0.01202749  0.99504423  0.41666667  1.0
  P  P5208  1  0.11202749  0.12004423  0.41666667  1.0
  P  P5209  1  0.11202749  0.24504423  0.41666667  1.0
  P  P5210  1  0.11202749  0.37004423  0.41666667  1.0
  P  P5211  1  0.11202749  0.49504423  0.41666667  1.0
  P  P5212  1  0.11202749  0.62004423  0.41666667  1.0
  P  P5213  1  0.11202749  0.74504423  0.41666667  1.0
  P  P5214  1  0.11202749  0.87004423  0.41666667  1.0
  P  P5215  1  0.11202749  0.99504423  0.41666667  1.0
  P  P5216  1  0.21202749  0.12004423  0.41666667  1.0
  P  P5217  1  0.21202749  0.24504423  0.41666667  1.0
  P  P5218  1  0.21202749  0.37004423  0.41666667  1.0
  P  P5219  1  0.21202749  0.49504423  0.41666667  1.0
  P  P5220  1  0.21202749  0.62004423  0.41666667  1.0
  P  P5221  1  0.21202749  0.74504423  0.41666667  1.0
  P  P5222  1  0.21202749  0.87004423  0.41666667  1.0
  P  P5223  1  0.21202749  0.99504423  0.41666667  1.0
  P  P5224  1  0.31202749  0.12004423  0.41666667  1.0
  P  P5225  1  0.31202749  0.24504423  0.41666667  1.0
  P  P5226  1  0.31202749  0.37004423  0.41666667  1.0
  P  P5227  1  0.31202749  0.49504423  0.41666667  1.0
  P  P5228  1  0.31202749  0.62004423  0.41666667  1.0
  P  P5229  1  0.31202749  0.74504423  0.41666667  1.0
  P  P5230  1  0.31202749  0.87004423  0.41666667  1.0
  P  P5231  1  0.31202749  0.99504423  0.41666667  1.0
  P  P5232  1  0.41202749  0.12004423  0.41666667  1.0
  P  P5233  1  0.41202749  0.24504423  0.41666667  1.0
  P  P5234  1  0.41202749  0.37004423  0.41666667  1.0
  P  P5235  1  0.41202749  0.49504423  0.41666667  1.0
  P  P5236  1  0.41202749  0.62004423  0.41666667  1.0
  P  P5237  1  0.41202749  0.74504423  0.41666667  1.0
  P  P5238  1  0.41202749  0.87004423  0.41666667  1.0
  P  P5239  1  0.41202749  0.99504423  0.41666667  1.0
  P  P5240  1  0.51202749  0.12004423  0.41666667  1.0
  P  P5241  1  0.51202749  0.24504423  0.41666667  1.0
  P  P5242  1  0.51202749  0.37004423  0.41666667  1.0
  P  P5243  1  0.51202749  0.49504423  0.41666667  1.0
  P  P5244  1  0.51202749  0.62004423  0.41666667  1.0
  P  P5245  1  0.51202749  0.74504423  0.41666667  1.0
  P  P5246  1  0.51202749  0.87004423  0.41666667  1.0
  P  P5247  1  0.51202749  0.99504423  0.41666667  1.0
  P  P5248  1  0.61202749  0.12004423  0.41666667  1.0
  P  P5249  1  0.61202749  0.24504423  0.41666667  1.0
  P  P5250  1  0.61202749  0.37004423  0.41666667  1.0
  P  P5251  1  0.61202749  0.49504423  0.41666667  1.0
  P  P5252  1  0.61202749  0.62004423  0.41666667  1.0
  P  P5253  1  0.61202749  0.74504423  0.41666667  1.0
  P  P5254  1  0.61202749  0.87004423  0.41666667  1.0
  P  P5255  1  0.61202749  0.99504423  0.41666667  1.0
  P  P5256  1  0.71202749  0.12004423  0.41666667  1.0
  P  P5257  1  0.71202749  0.24504423  0.41666667  1.0
  P  P5258  1  0.71202749  0.37004423  0.41666667  1.0
  P  P5259  1  0.71202749  0.49504423  0.41666667  1.0
  P  P5260  1  0.71202749  0.62004423  0.41666667  1.0
  P  P5261  1  0.71202749  0.74504423  0.41666667  1.0
  P  P5262  1  0.71202749  0.87004423  0.41666667  1.0
  P  P5263  1  0.71202749  0.99504423  0.41666667  1.0
  P  P5264  1  0.81202749  0.12004423  0.41666667  1.0
  P  P5265  1  0.81202749  0.24504423  0.41666667  1.0
  P  P5266  1  0.81202749  0.37004423  0.41666667  1.0
  P  P5267  1  0.81202749  0.49504423  0.41666667  1.0
  P  P5268  1  0.81202749  0.62004423  0.41666667  1.0
  P  P5269  1  0.81202749  0.74504423  0.41666667  1.0
  P  P5270  1  0.81202749  0.87004423  0.41666667  1.0
  P  P5271  1  0.81202749  0.99504423  0.41666667  1.0
  P  P5272  1  0.91202749  0.12004423  0.41666667  1.0
  P  P5273  1  0.91202749  0.24504423  0.41666667  1.0
  P  P5274  1  0.91202749  0.37004423  0.41666667  1.0
  P  P5275  1  0.91202749  0.49504423  0.41666667  1.0
  P  P5276  1  0.91202749  0.62004423  0.41666667  1.0
  P  P5277  1  0.91202749  0.74504423  0.41666667  1.0
  P  P5278  1  0.91202749  0.87004423  0.41666667  1.0
  P  P5279  1  0.91202749  0.99504423  0.41666667  1.0
  P  P5280  1  0.03797251  0.05754423  0.45000000  1.0
  P  P5281  1  0.03797251  0.18254423  0.45000000  1.0
  P  P5282  1  0.03797251  0.30754423  0.45000000  1.0
  P  P5283  1  0.03797251  0.43254423  0.45000000  1.0
  P  P5284  1  0.03797251  0.55754423  0.45000000  1.0
  P  P5285  1  0.03797251  0.68254423  0.45000000  1.0
  P  P5286  1  0.03797251  0.80754423  0.45000000  1.0
  P  P5287  1  0.03797251  0.93254423  0.45000000  1.0
  P  P5288  1  0.13797251  0.05754423  0.45000000  1.0
  P  P5289  1  0.13797251  0.18254423  0.45000000  1.0
  P  P5290  1  0.13797251  0.30754423  0.45000000  1.0
  P  P5291  1  0.13797251  0.43254423  0.45000000  1.0
  P  P5292  1  0.13797251  0.55754423  0.45000000  1.0
  P  P5293  1  0.13797251  0.68254423  0.45000000  1.0
  P  P5294  1  0.13797251  0.80754423  0.45000000  1.0
  P  P5295  1  0.13797251  0.93254423  0.45000000  1.0
  P  P5296  1  0.23797251  0.05754423  0.45000000  1.0
  P  P5297  1  0.23797251  0.18254423  0.45000000  1.0
  P  P5298  1  0.23797251  0.30754423  0.45000000  1.0
  P  P5299  1  0.23797251  0.43254423  0.45000000  1.0
  P  P5300  1  0.23797251  0.55754423  0.45000000  1.0
  P  P5301  1  0.23797251  0.68254423  0.45000000  1.0
  P  P5302  1  0.23797251  0.80754423  0.45000000  1.0
  P  P5303  1  0.23797251  0.93254423  0.45000000  1.0
  P  P5304  1  0.33797251  0.05754423  0.45000000  1.0
  P  P5305  1  0.33797251  0.18254423  0.45000000  1.0
  P  P5306  1  0.33797251  0.30754423  0.45000000  1.0
  P  P5307  1  0.33797251  0.43254423  0.45000000  1.0
  P  P5308  1  0.33797251  0.55754423  0.45000000  1.0
  P  P5309  1  0.33797251  0.68254423  0.45000000  1.0
  P  P5310  1  0.33797251  0.80754423  0.45000000  1.0
  P  P5311  1  0.33797251  0.93254423  0.45000000  1.0
  P  P5312  1  0.43797251  0.05754423  0.45000000  1.0
  P  P5313  1  0.43797251  0.18254423  0.45000000  1.0
  P  P5314  1  0.43797251  0.30754423  0.45000000  1.0
  P  P5315  1  0.43797251  0.43254423  0.45000000  1.0
  P  P5316  1  0.43797251  0.55754423  0.45000000  1.0
  P  P5317  1  0.43797251  0.68254423  0.45000000  1.0
  P  P5318  1  0.43797251  0.80754423  0.45000000  1.0
  P  P5319  1  0.43797251  0.93254423  0.45000000  1.0
  P  P5320  1  0.53797251  0.05754423  0.45000000  1.0
  P  P5321  1  0.53797251  0.18254423  0.45000000  1.0
  P  P5322  1  0.53797251  0.30754423  0.45000000  1.0
  P  P5323  1  0.53797251  0.43254423  0.45000000  1.0
  P  P5324  1  0.53797251  0.55754423  0.45000000  1.0
  P  P5325  1  0.53797251  0.68254423  0.45000000  1.0
  P  P5326  1  0.53797251  0.80754423  0.45000000  1.0
  P  P5327  1  0.53797251  0.93254423  0.45000000  1.0
  P  P5328  1  0.63797251  0.05754423  0.45000000  1.0
  P  P5329  1  0.63797251  0.18254423  0.45000000  1.0
  P  P5330  1  0.63797251  0.30754423  0.45000000  1.0
  P  P5331  1  0.63797251  0.43254423  0.45000000  1.0
  P  P5332  1  0.63797251  0.55754423  0.45000000  1.0
  P  P5333  1  0.63797251  0.68254423  0.45000000  1.0
  P  P5334  1  0.63797251  0.80754423  0.45000000  1.0
  P  P5335  1  0.63797251  0.93254423  0.45000000  1.0
  P  P5336  1  0.73797251  0.05754423  0.45000000  1.0
  P  P5337  1  0.73797251  0.18254423  0.45000000  1.0
  P  P5338  1  0.73797251  0.30754423  0.45000000  1.0
  P  P5339  1  0.73797251  0.43254423  0.45000000  1.0
  P  P5340  1  0.73797251  0.55754423  0.45000000  1.0
  P  P5341  1  0.73797251  0.68254423  0.45000000  1.0
  P  P5342  1  0.73797251  0.80754423  0.45000000  1.0
  P  P5343  1  0.73797251  0.93254423  0.45000000  1.0
  P  P5344  1  0.83797251  0.05754423  0.45000000  1.0
  P  P5345  1  0.83797251  0.18254423  0.45000000  1.0
  P  P5346  1  0.83797251  0.30754423  0.45000000  1.0
  P  P5347  1  0.83797251  0.43254423  0.45000000  1.0
  P  P5348  1  0.83797251  0.55754423  0.45000000  1.0
  P  P5349  1  0.83797251  0.68254423  0.45000000  1.0
  P  P5350  1  0.83797251  0.80754423  0.45000000  1.0
  P  P5351  1  0.83797251  0.93254423  0.45000000  1.0
  P  P5352  1  0.93797251  0.05754423  0.45000000  1.0
  P  P5353  1  0.93797251  0.18254423  0.45000000  1.0
  P  P5354  1  0.93797251  0.30754423  0.45000000  1.0
  P  P5355  1  0.93797251  0.43254423  0.45000000  1.0
  P  P5356  1  0.93797251  0.55754423  0.45000000  1.0
  P  P5357  1  0.93797251  0.68254423  0.45000000  1.0
  P  P5358  1  0.93797251  0.80754423  0.45000000  1.0
  P  P5359  1  0.93797251  0.93254423  0.45000000  1.0
  P  P5360  1  0.06202749  0.06745577  0.41666667  1.0
  P  P5361  1  0.06202749  0.19245577  0.41666667  1.0
  P  P5362  1  0.06202749  0.31745577  0.41666667  1.0
  P  P5363  1  0.06202749  0.44245577  0.41666667  1.0
  P  P5364  1  0.06202749  0.56745577  0.41666667  1.0
  P  P5365  1  0.06202749  0.69245577  0.41666667  1.0
  P  P5366  1  0.06202749  0.81745577  0.41666667  1.0
  P  P5367  1  0.06202749  0.94245577  0.41666667  1.0
  P  P5368  1  0.16202749  0.06745577  0.41666667  1.0
  P  P5369  1  0.16202749  0.19245577  0.41666667  1.0
  P  P5370  1  0.16202749  0.31745577  0.41666667  1.0
  P  P5371  1  0.16202749  0.44245577  0.41666667  1.0
  P  P5372  1  0.16202749  0.56745577  0.41666667  1.0
  P  P5373  1  0.16202749  0.69245577  0.41666667  1.0
  P  P5374  1  0.16202749  0.81745577  0.41666667  1.0
  P  P5375  1  0.16202749  0.94245577  0.41666667  1.0
  P  P5376  1  0.26202749  0.06745577  0.41666667  1.0
  P  P5377  1  0.26202749  0.19245577  0.41666667  1.0
  P  P5378  1  0.26202749  0.31745577  0.41666667  1.0
  P  P5379  1  0.26202749  0.44245577  0.41666667  1.0
  P  P5380  1  0.26202749  0.56745577  0.41666667  1.0
  P  P5381  1  0.26202749  0.69245577  0.41666667  1.0
  P  P5382  1  0.26202749  0.81745577  0.41666667  1.0
  P  P5383  1  0.26202749  0.94245577  0.41666667  1.0
  P  P5384  1  0.36202749  0.06745577  0.41666667  1.0
  P  P5385  1  0.36202749  0.19245577  0.41666667  1.0
  P  P5386  1  0.36202749  0.31745577  0.41666667  1.0
  P  P5387  1  0.36202749  0.44245577  0.41666667  1.0
  P  P5388  1  0.36202749  0.56745577  0.41666667  1.0
  P  P5389  1  0.36202749  0.69245577  0.41666667  1.0
  P  P5390  1  0.36202749  0.81745577  0.41666667  1.0
  P  P5391  1  0.36202749  0.94245577  0.41666667  1.0
  P  P5392  1  0.46202749  0.06745577  0.41666667  1.0
  P  P5393  1  0.46202749  0.19245577  0.41666667  1.0
  P  P5394  1  0.46202749  0.31745577  0.41666667  1.0
  P  P5395  1  0.46202749  0.44245577  0.41666667  1.0
  P  P5396  1  0.46202749  0.56745577  0.41666667  1.0
  P  P5397  1  0.46202749  0.69245577  0.41666667  1.0
  P  P5398  1  0.46202749  0.81745577  0.41666667  1.0
  P  P5399  1  0.46202749  0.94245577  0.41666667  1.0
  P  P5400  1  0.56202749  0.06745577  0.41666667  1.0
  P  P5401  1  0.56202749  0.19245577  0.41666667  1.0
  P  P5402  1  0.56202749  0.31745577  0.41666667  1.0
  P  P5403  1  0.56202749  0.44245577  0.41666667  1.0
  P  P5404  1  0.56202749  0.56745577  0.41666667  1.0
  P  P5405  1  0.56202749  0.69245577  0.41666667  1.0
  P  P5406  1  0.56202749  0.81745577  0.41666667  1.0
  P  P5407  1  0.56202749  0.94245577  0.41666667  1.0
  P  P5408  1  0.66202749  0.06745577  0.41666667  1.0
  P  P5409  1  0.66202749  0.19245577  0.41666667  1.0
  P  P5410  1  0.66202749  0.31745577  0.41666667  1.0
  P  P5411  1  0.66202749  0.44245577  0.41666667  1.0
  P  P5412  1  0.66202749  0.56745577  0.41666667  1.0
  P  P5413  1  0.66202749  0.69245577  0.41666667  1.0
  P  P5414  1  0.66202749  0.81745577  0.41666667  1.0
  P  P5415  1  0.66202749  0.94245577  0.41666667  1.0
  P  P5416  1  0.76202749  0.06745577  0.41666667  1.0
  P  P5417  1  0.76202749  0.19245577  0.41666667  1.0
  P  P5418  1  0.76202749  0.31745577  0.41666667  1.0
  P  P5419  1  0.76202749  0.44245577  0.41666667  1.0
  P  P5420  1  0.76202749  0.56745577  0.41666667  1.0
  P  P5421  1  0.76202749  0.69245577  0.41666667  1.0
  P  P5422  1  0.76202749  0.81745577  0.41666667  1.0
  P  P5423  1  0.76202749  0.94245577  0.41666667  1.0
  P  P5424  1  0.86202749  0.06745577  0.41666667  1.0
  P  P5425  1  0.86202749  0.19245577  0.41666667  1.0
  P  P5426  1  0.86202749  0.31745577  0.41666667  1.0
  P  P5427  1  0.86202749  0.44245577  0.41666667  1.0
  P  P5428  1  0.86202749  0.56745577  0.41666667  1.0
  P  P5429  1  0.86202749  0.69245577  0.41666667  1.0
  P  P5430  1  0.86202749  0.81745577  0.41666667  1.0
  P  P5431  1  0.86202749  0.94245577  0.41666667  1.0
  P  P5432  1  0.96202749  0.06745577  0.41666667  1.0
  P  P5433  1  0.96202749  0.19245577  0.41666667  1.0
  P  P5434  1  0.96202749  0.31745577  0.41666667  1.0
  P  P5435  1  0.96202749  0.44245577  0.41666667  1.0
  P  P5436  1  0.96202749  0.56745577  0.41666667  1.0
  P  P5437  1  0.96202749  0.69245577  0.41666667  1.0
  P  P5438  1  0.96202749  0.81745577  0.41666667  1.0
  P  P5439  1  0.96202749  0.94245577  0.41666667  1.0
  P  P5440  1  0.05878854  0.01712191  0.48333333  1.0
  P  P5441  1  0.05878854  0.14212191  0.48333333  1.0
  P  P5442  1  0.05878854  0.26712191  0.48333333  1.0
  P  P5443  1  0.05878854  0.39212191  0.48333333  1.0
  P  P5444  1  0.05878854  0.51712191  0.48333333  1.0
  P  P5445  1  0.05878854  0.64212191  0.48333333  1.0
  P  P5446  1  0.05878854  0.76712191  0.48333333  1.0
  P  P5447  1  0.05878854  0.89212191  0.48333333  1.0
  P  P5448  1  0.15878854  0.01712191  0.48333333  1.0
  P  P5449  1  0.15878854  0.14212191  0.48333333  1.0
  P  P5450  1  0.15878854  0.26712191  0.48333333  1.0
  P  P5451  1  0.15878854  0.39212191  0.48333333  1.0
  P  P5452  1  0.15878854  0.51712191  0.48333333  1.0
  P  P5453  1  0.15878854  0.64212191  0.48333333  1.0
  P  P5454  1  0.15878854  0.76712191  0.48333333  1.0
  P  P5455  1  0.15878854  0.89212191  0.48333333  1.0
  P  P5456  1  0.25878854  0.01712191  0.48333333  1.0
  P  P5457  1  0.25878854  0.14212191  0.48333333  1.0
  P  P5458  1  0.25878854  0.26712191  0.48333333  1.0
  P  P5459  1  0.25878854  0.39212191  0.48333333  1.0
  P  P5460  1  0.25878854  0.51712191  0.48333333  1.0
  P  P5461  1  0.25878854  0.64212191  0.48333333  1.0
  P  P5462  1  0.25878854  0.76712191  0.48333333  1.0
  P  P5463  1  0.25878854  0.89212191  0.48333333  1.0
  P  P5464  1  0.35878854  0.01712191  0.48333333  1.0
  P  P5465  1  0.35878854  0.14212191  0.48333333  1.0
  P  P5466  1  0.35878854  0.26712191  0.48333333  1.0
  P  P5467  1  0.35878854  0.39212191  0.48333333  1.0
  P  P5468  1  0.35878854  0.51712191  0.48333333  1.0
  P  P5469  1  0.35878854  0.64212191  0.48333333  1.0
  P  P5470  1  0.35878854  0.76712191  0.48333333  1.0
  P  P5471  1  0.35878854  0.89212191  0.48333333  1.0
  P  P5472  1  0.45878854  0.01712191  0.48333333  1.0
  P  P5473  1  0.45878854  0.14212191  0.48333333  1.0
  P  P5474  1  0.45878854  0.26712191  0.48333333  1.0
  P  P5475  1  0.45878854  0.39212191  0.48333333  1.0
  P  P5476  1  0.45878854  0.51712191  0.48333333  1.0
  P  P5477  1  0.45878854  0.64212191  0.48333333  1.0
  P  P5478  1  0.45878854  0.76712191  0.48333333  1.0
  P  P5479  1  0.45878854  0.89212191  0.48333333  1.0
  P  P5480  1  0.55878854  0.01712191  0.48333333  1.0
  P  P5481  1  0.55878854  0.14212191  0.48333333  1.0
  P  P5482  1  0.55878854  0.26712191  0.48333333  1.0
  P  P5483  1  0.55878854  0.39212191  0.48333333  1.0
  P  P5484  1  0.55878854  0.51712191  0.48333333  1.0
  P  P5485  1  0.55878854  0.64212191  0.48333333  1.0
  P  P5486  1  0.55878854  0.76712191  0.48333333  1.0
  P  P5487  1  0.55878854  0.89212191  0.48333333  1.0
  P  P5488  1  0.65878854  0.01712191  0.48333333  1.0
  P  P5489  1  0.65878854  0.14212191  0.48333333  1.0
  P  P5490  1  0.65878854  0.26712191  0.48333333  1.0
  P  P5491  1  0.65878854  0.39212191  0.48333333  1.0
  P  P5492  1  0.65878854  0.51712191  0.48333333  1.0
  P  P5493  1  0.65878854  0.64212191  0.48333333  1.0
  P  P5494  1  0.65878854  0.76712191  0.48333333  1.0
  P  P5495  1  0.65878854  0.89212191  0.48333333  1.0
  P  P5496  1  0.75878854  0.01712191  0.48333333  1.0
  P  P5497  1  0.75878854  0.14212191  0.48333333  1.0
  P  P5498  1  0.75878854  0.26712191  0.48333333  1.0
  P  P5499  1  0.75878854  0.39212191  0.48333333  1.0
  P  P5500  1  0.75878854  0.51712191  0.48333333  1.0
  P  P5501  1  0.75878854  0.64212191  0.48333333  1.0
  P  P5502  1  0.75878854  0.76712191  0.48333333  1.0
  P  P5503  1  0.75878854  0.89212191  0.48333333  1.0
  P  P5504  1  0.85878854  0.01712191  0.48333333  1.0
  P  P5505  1  0.85878854  0.14212191  0.48333333  1.0
  P  P5506  1  0.85878854  0.26712191  0.48333333  1.0
  P  P5507  1  0.85878854  0.39212191  0.48333333  1.0
  P  P5508  1  0.85878854  0.51712191  0.48333333  1.0
  P  P5509  1  0.85878854  0.64212191  0.48333333  1.0
  P  P5510  1  0.85878854  0.76712191  0.48333333  1.0
  P  P5511  1  0.85878854  0.89212191  0.48333333  1.0
  P  P5512  1  0.95878854  0.01712191  0.48333333  1.0
  P  P5513  1  0.95878854  0.14212191  0.48333333  1.0
  P  P5514  1  0.95878854  0.26712191  0.48333333  1.0
  P  P5515  1  0.95878854  0.39212191  0.48333333  1.0
  P  P5516  1  0.95878854  0.51712191  0.48333333  1.0
  P  P5517  1  0.95878854  0.64212191  0.48333333  1.0
  P  P5518  1  0.95878854  0.76712191  0.48333333  1.0
  P  P5519  1  0.95878854  0.89212191  0.48333333  1.0
  P  P5520  1  0.04121146  0.10787809  0.51666667  1.0
  P  P5521  1  0.04121146  0.23287809  0.51666667  1.0
  P  P5522  1  0.04121146  0.35787809  0.51666667  1.0
  P  P5523  1  0.04121146  0.48287809  0.51666667  1.0
  P  P5524  1  0.04121146  0.60787809  0.51666667  1.0
  P  P5525  1  0.04121146  0.73287809  0.51666667  1.0
  P  P5526  1  0.04121146  0.85787809  0.51666667  1.0
  P  P5527  1  0.04121146  0.98287809  0.51666667  1.0
  P  P5528  1  0.14121146  0.10787809  0.51666667  1.0
  P  P5529  1  0.14121146  0.23287809  0.51666667  1.0
  P  P5530  1  0.14121146  0.35787809  0.51666667  1.0
  P  P5531  1  0.14121146  0.48287809  0.51666667  1.0
  P  P5532  1  0.14121146  0.60787809  0.51666667  1.0
  P  P5533  1  0.14121146  0.73287809  0.51666667  1.0
  P  P5534  1  0.14121146  0.85787809  0.51666667  1.0
  P  P5535  1  0.14121146  0.98287809  0.51666667  1.0
  P  P5536  1  0.24121146  0.10787809  0.51666667  1.0
  P  P5537  1  0.24121146  0.23287809  0.51666667  1.0
  P  P5538  1  0.24121146  0.35787809  0.51666667  1.0
  P  P5539  1  0.24121146  0.48287809  0.51666667  1.0
  P  P5540  1  0.24121146  0.60787809  0.51666667  1.0
  P  P5541  1  0.24121146  0.73287809  0.51666667  1.0
  P  P5542  1  0.24121146  0.85787809  0.51666667  1.0
  P  P5543  1  0.24121146  0.98287809  0.51666667  1.0
  P  P5544  1  0.34121146  0.10787809  0.51666667  1.0
  P  P5545  1  0.34121146  0.23287809  0.51666667  1.0
  P  P5546  1  0.34121146  0.35787809  0.51666667  1.0
  P  P5547  1  0.34121146  0.48287809  0.51666667  1.0
  P  P5548  1  0.34121146  0.60787809  0.51666667  1.0
  P  P5549  1  0.34121146  0.73287809  0.51666667  1.0
  P  P5550  1  0.34121146  0.85787809  0.51666667  1.0
  P  P5551  1  0.34121146  0.98287809  0.51666667  1.0
  P  P5552  1  0.44121146  0.10787809  0.51666667  1.0
  P  P5553  1  0.44121146  0.23287809  0.51666667  1.0
  P  P5554  1  0.44121146  0.35787809  0.51666667  1.0
  P  P5555  1  0.44121146  0.48287809  0.51666667  1.0
  P  P5556  1  0.44121146  0.60787809  0.51666667  1.0
  P  P5557  1  0.44121146  0.73287809  0.51666667  1.0
  P  P5558  1  0.44121146  0.85787809  0.51666667  1.0
  P  P5559  1  0.44121146  0.98287809  0.51666667  1.0
  P  P5560  1  0.54121146  0.10787809  0.51666667  1.0
  P  P5561  1  0.54121146  0.23287809  0.51666667  1.0
  P  P5562  1  0.54121146  0.35787809  0.51666667  1.0
  P  P5563  1  0.54121146  0.48287809  0.51666667  1.0
  P  P5564  1  0.54121146  0.60787809  0.51666667  1.0
  P  P5565  1  0.54121146  0.73287809  0.51666667  1.0
  P  P5566  1  0.54121146  0.85787809  0.51666667  1.0
  P  P5567  1  0.54121146  0.98287809  0.51666667  1.0
  P  P5568  1  0.64121146  0.10787809  0.51666667  1.0
  P  P5569  1  0.64121146  0.23287809  0.51666667  1.0
  P  P5570  1  0.64121146  0.35787809  0.51666667  1.0
  P  P5571  1  0.64121146  0.48287809  0.51666667  1.0
  P  P5572  1  0.64121146  0.60787809  0.51666667  1.0
  P  P5573  1  0.64121146  0.73287809  0.51666667  1.0
  P  P5574  1  0.64121146  0.85787809  0.51666667  1.0
  P  P5575  1  0.64121146  0.98287809  0.51666667  1.0
  P  P5576  1  0.74121146  0.10787809  0.51666667  1.0
  P  P5577  1  0.74121146  0.23287809  0.51666667  1.0
  P  P5578  1  0.74121146  0.35787809  0.51666667  1.0
  P  P5579  1  0.74121146  0.48287809  0.51666667  1.0
  P  P5580  1  0.74121146  0.60787809  0.51666667  1.0
  P  P5581  1  0.74121146  0.73287809  0.51666667  1.0
  P  P5582  1  0.74121146  0.85787809  0.51666667  1.0
  P  P5583  1  0.74121146  0.98287809  0.51666667  1.0
  P  P5584  1  0.84121146  0.10787809  0.51666667  1.0
  P  P5585  1  0.84121146  0.23287809  0.51666667  1.0
  P  P5586  1  0.84121146  0.35787809  0.51666667  1.0
  P  P5587  1  0.84121146  0.48287809  0.51666667  1.0
  P  P5588  1  0.84121146  0.60787809  0.51666667  1.0
  P  P5589  1  0.84121146  0.73287809  0.51666667  1.0
  P  P5590  1  0.84121146  0.85787809  0.51666667  1.0
  P  P5591  1  0.84121146  0.98287809  0.51666667  1.0
  P  P5592  1  0.94121146  0.10787809  0.51666667  1.0
  P  P5593  1  0.94121146  0.23287809  0.51666667  1.0
  P  P5594  1  0.94121146  0.35787809  0.51666667  1.0
  P  P5595  1  0.94121146  0.48287809  0.51666667  1.0
  P  P5596  1  0.94121146  0.60787809  0.51666667  1.0
  P  P5597  1  0.94121146  0.73287809  0.51666667  1.0
  P  P5598  1  0.94121146  0.85787809  0.51666667  1.0
  P  P5599  1  0.94121146  0.98287809  0.51666667  1.0
  P  P5600  1  0.00878854  0.04537809  0.48333333  1.0
  P  P5601  1  0.00878854  0.17037809  0.48333333  1.0
  P  P5602  1  0.00878854  0.29537809  0.48333333  1.0
  P  P5603  1  0.00878854  0.42037809  0.48333333  1.0
  P  P5604  1  0.00878854  0.54537809  0.48333333  1.0
  P  P5605  1  0.00878854  0.67037809  0.48333333  1.0
  P  P5606  1  0.00878854  0.79537809  0.48333333  1.0
  P  P5607  1  0.00878854  0.92037809  0.48333333  1.0
  P  P5608  1  0.10878854  0.04537809  0.48333333  1.0
  P  P5609  1  0.10878854  0.17037809  0.48333333  1.0
  P  P5610  1  0.10878854  0.29537809  0.48333333  1.0
  P  P5611  1  0.10878854  0.42037809  0.48333333  1.0
  P  P5612  1  0.10878854  0.54537809  0.48333333  1.0
  P  P5613  1  0.10878854  0.67037809  0.48333333  1.0
  P  P5614  1  0.10878854  0.79537809  0.48333333  1.0
  P  P5615  1  0.10878854  0.92037809  0.48333333  1.0
  P  P5616  1  0.20878854  0.04537809  0.48333333  1.0
  P  P5617  1  0.20878854  0.17037809  0.48333333  1.0
  P  P5618  1  0.20878854  0.29537809  0.48333333  1.0
  P  P5619  1  0.20878854  0.42037809  0.48333333  1.0
  P  P5620  1  0.20878854  0.54537809  0.48333333  1.0
  P  P5621  1  0.20878854  0.67037809  0.48333333  1.0
  P  P5622  1  0.20878854  0.79537809  0.48333333  1.0
  P  P5623  1  0.20878854  0.92037809  0.48333333  1.0
  P  P5624  1  0.30878854  0.04537809  0.48333333  1.0
  P  P5625  1  0.30878854  0.17037809  0.48333333  1.0
  P  P5626  1  0.30878854  0.29537809  0.48333333  1.0
  P  P5627  1  0.30878854  0.42037809  0.48333333  1.0
  P  P5628  1  0.30878854  0.54537809  0.48333333  1.0
  P  P5629  1  0.30878854  0.67037809  0.48333333  1.0
  P  P5630  1  0.30878854  0.79537809  0.48333333  1.0
  P  P5631  1  0.30878854  0.92037809  0.48333333  1.0
  P  P5632  1  0.40878854  0.04537809  0.48333333  1.0
  P  P5633  1  0.40878854  0.17037809  0.48333333  1.0
  P  P5634  1  0.40878854  0.29537809  0.48333333  1.0
  P  P5635  1  0.40878854  0.42037809  0.48333333  1.0
  P  P5636  1  0.40878854  0.54537809  0.48333333  1.0
  P  P5637  1  0.40878854  0.67037809  0.48333333  1.0
  P  P5638  1  0.40878854  0.79537809  0.48333333  1.0
  P  P5639  1  0.40878854  0.92037809  0.48333333  1.0
  P  P5640  1  0.50878854  0.04537809  0.48333333  1.0
  P  P5641  1  0.50878854  0.17037809  0.48333333  1.0
  P  P5642  1  0.50878854  0.29537809  0.48333333  1.0
  P  P5643  1  0.50878854  0.42037809  0.48333333  1.0
  P  P5644  1  0.50878854  0.54537809  0.48333333  1.0
  P  P5645  1  0.50878854  0.67037809  0.48333333  1.0
  P  P5646  1  0.50878854  0.79537809  0.48333333  1.0
  P  P5647  1  0.50878854  0.92037809  0.48333333  1.0
  P  P5648  1  0.60878854  0.04537809  0.48333333  1.0
  P  P5649  1  0.60878854  0.17037809  0.48333333  1.0
  P  P5650  1  0.60878854  0.29537809  0.48333333  1.0
  P  P5651  1  0.60878854  0.42037809  0.48333333  1.0
  P  P5652  1  0.60878854  0.54537809  0.48333333  1.0
  P  P5653  1  0.60878854  0.67037809  0.48333333  1.0
  P  P5654  1  0.60878854  0.79537809  0.48333333  1.0
  P  P5655  1  0.60878854  0.92037809  0.48333333  1.0
  P  P5656  1  0.70878854  0.04537809  0.48333333  1.0
  P  P5657  1  0.70878854  0.17037809  0.48333333  1.0
  P  P5658  1  0.70878854  0.29537809  0.48333333  1.0
  P  P5659  1  0.70878854  0.42037809  0.48333333  1.0
  P  P5660  1  0.70878854  0.54537809  0.48333333  1.0
  P  P5661  1  0.70878854  0.67037809  0.48333333  1.0
  P  P5662  1  0.70878854  0.79537809  0.48333333  1.0
  P  P5663  1  0.70878854  0.92037809  0.48333333  1.0
  P  P5664  1  0.80878854  0.04537809  0.48333333  1.0
  P  P5665  1  0.80878854  0.17037809  0.48333333  1.0
  P  P5666  1  0.80878854  0.29537809  0.48333333  1.0
  P  P5667  1  0.80878854  0.42037809  0.48333333  1.0
  P  P5668  1  0.80878854  0.54537809  0.48333333  1.0
  P  P5669  1  0.80878854  0.67037809  0.48333333  1.0
  P  P5670  1  0.80878854  0.79537809  0.48333333  1.0
  P  P5671  1  0.80878854  0.92037809  0.48333333  1.0
  P  P5672  1  0.90878854  0.04537809  0.48333333  1.0
  P  P5673  1  0.90878854  0.17037809  0.48333333  1.0
  P  P5674  1  0.90878854  0.29537809  0.48333333  1.0
  P  P5675  1  0.90878854  0.42037809  0.48333333  1.0
  P  P5676  1  0.90878854  0.54537809  0.48333333  1.0
  P  P5677  1  0.90878854  0.67037809  0.48333333  1.0
  P  P5678  1  0.90878854  0.79537809  0.48333333  1.0
  P  P5679  1  0.90878854  0.92037809  0.48333333  1.0
  P  P5680  1  0.09121146  0.07962191  0.51666667  1.0
  P  P5681  1  0.09121146  0.20462191  0.51666667  1.0
  P  P5682  1  0.09121146  0.32962191  0.51666667  1.0
  P  P5683  1  0.09121146  0.45462191  0.51666667  1.0
  P  P5684  1  0.09121146  0.57962191  0.51666667  1.0
  P  P5685  1  0.09121146  0.70462191  0.51666667  1.0
  P  P5686  1  0.09121146  0.82962191  0.51666667  1.0
  P  P5687  1  0.09121146  0.95462191  0.51666667  1.0
  P  P5688  1  0.19121146  0.07962191  0.51666667  1.0
  P  P5689  1  0.19121146  0.20462191  0.51666667  1.0
  P  P5690  1  0.19121146  0.32962191  0.51666667  1.0
  P  P5691  1  0.19121146  0.45462191  0.51666667  1.0
  P  P5692  1  0.19121146  0.57962191  0.51666667  1.0
  P  P5693  1  0.19121146  0.70462191  0.51666667  1.0
  P  P5694  1  0.19121146  0.82962191  0.51666667  1.0
  P  P5695  1  0.19121146  0.95462191  0.51666667  1.0
  P  P5696  1  0.29121146  0.07962191  0.51666667  1.0
  P  P5697  1  0.29121146  0.20462191  0.51666667  1.0
  P  P5698  1  0.29121146  0.32962191  0.51666667  1.0
  P  P5699  1  0.29121146  0.45462191  0.51666667  1.0
  P  P5700  1  0.29121146  0.57962191  0.51666667  1.0
  P  P5701  1  0.29121146  0.70462191  0.51666667  1.0
  P  P5702  1  0.29121146  0.82962191  0.51666667  1.0
  P  P5703  1  0.29121146  0.95462191  0.51666667  1.0
  P  P5704  1  0.39121146  0.07962191  0.51666667  1.0
  P  P5705  1  0.39121146  0.20462191  0.51666667  1.0
  P  P5706  1  0.39121146  0.32962191  0.51666667  1.0
  P  P5707  1  0.39121146  0.45462191  0.51666667  1.0
  P  P5708  1  0.39121146  0.57962191  0.51666667  1.0
  P  P5709  1  0.39121146  0.70462191  0.51666667  1.0
  P  P5710  1  0.39121146  0.82962191  0.51666667  1.0
  P  P5711  1  0.39121146  0.95462191  0.51666667  1.0
  P  P5712  1  0.49121146  0.07962191  0.51666667  1.0
  P  P5713  1  0.49121146  0.20462191  0.51666667  1.0
  P  P5714  1  0.49121146  0.32962191  0.51666667  1.0
  P  P5715  1  0.49121146  0.45462191  0.51666667  1.0
  P  P5716  1  0.49121146  0.57962191  0.51666667  1.0
  P  P5717  1  0.49121146  0.70462191  0.51666667  1.0
  P  P5718  1  0.49121146  0.82962191  0.51666667  1.0
  P  P5719  1  0.49121146  0.95462191  0.51666667  1.0
  P  P5720  1  0.59121146  0.07962191  0.51666667  1.0
  P  P5721  1  0.59121146  0.20462191  0.51666667  1.0
  P  P5722  1  0.59121146  0.32962191  0.51666667  1.0
  P  P5723  1  0.59121146  0.45462191  0.51666667  1.0
  P  P5724  1  0.59121146  0.57962191  0.51666667  1.0
  P  P5725  1  0.59121146  0.70462191  0.51666667  1.0
  P  P5726  1  0.59121146  0.82962191  0.51666667  1.0
  P  P5727  1  0.59121146  0.95462191  0.51666667  1.0
  P  P5728  1  0.69121146  0.07962191  0.51666667  1.0
  P  P5729  1  0.69121146  0.20462191  0.51666667  1.0
  P  P5730  1  0.69121146  0.32962191  0.51666667  1.0
  P  P5731  1  0.69121146  0.45462191  0.51666667  1.0
  P  P5732  1  0.69121146  0.57962191  0.51666667  1.0
  P  P5733  1  0.69121146  0.70462191  0.51666667  1.0
  P  P5734  1  0.69121146  0.82962191  0.51666667  1.0
  P  P5735  1  0.69121146  0.95462191  0.51666667  1.0
  P  P5736  1  0.79121146  0.07962191  0.51666667  1.0
  P  P5737  1  0.79121146  0.20462191  0.51666667  1.0
  P  P5738  1  0.79121146  0.32962191  0.51666667  1.0
  P  P5739  1  0.79121146  0.45462191  0.51666667  1.0
  P  P5740  1  0.79121146  0.57962191  0.51666667  1.0
  P  P5741  1  0.79121146  0.70462191  0.51666667  1.0
  P  P5742  1  0.79121146  0.82962191  0.51666667  1.0
  P  P5743  1  0.79121146  0.95462191  0.51666667  1.0
  P  P5744  1  0.89121146  0.07962191  0.51666667  1.0
  P  P5745  1  0.89121146  0.20462191  0.51666667  1.0
  P  P5746  1  0.89121146  0.32962191  0.51666667  1.0
  P  P5747  1  0.89121146  0.45462191  0.51666667  1.0
  P  P5748  1  0.89121146  0.57962191  0.51666667  1.0
  P  P5749  1  0.89121146  0.70462191  0.51666667  1.0
  P  P5750  1  0.89121146  0.82962191  0.51666667  1.0
  P  P5751  1  0.89121146  0.95462191  0.51666667  1.0
  P  P5752  1  0.99121146  0.07962191  0.51666667  1.0
  P  P5753  1  0.99121146  0.20462191  0.51666667  1.0
  P  P5754  1  0.99121146  0.32962191  0.51666667  1.0
  P  P5755  1  0.99121146  0.45462191  0.51666667  1.0
  P  P5756  1  0.99121146  0.57962191  0.51666667  1.0
  P  P5757  1  0.99121146  0.70462191  0.51666667  1.0
  P  P5758  1  0.99121146  0.82962191  0.51666667  1.0
  P  P5759  1  0.99121146  0.95462191  0.51666667  1.0
  P  P5760  1  0.08797251  0.00495577  0.51666667  1.0
  P  P5761  1  0.08797251  0.12995577  0.51666667  1.0
  P  P5762  1  0.08797251  0.25495577  0.51666667  1.0
  P  P5763  1  0.08797251  0.37995577  0.51666667  1.0
  P  P5764  1  0.08797251  0.50495577  0.51666667  1.0
  P  P5765  1  0.08797251  0.62995577  0.51666667  1.0
  P  P5766  1  0.08797251  0.75495577  0.51666667  1.0
  P  P5767  1  0.08797251  0.87995577  0.51666667  1.0
  P  P5768  1  0.18797251  0.00495577  0.51666667  1.0
  P  P5769  1  0.18797251  0.12995577  0.51666667  1.0
  P  P5770  1  0.18797251  0.25495577  0.51666667  1.0
  P  P5771  1  0.18797251  0.37995577  0.51666667  1.0
  P  P5772  1  0.18797251  0.50495577  0.51666667  1.0
  P  P5773  1  0.18797251  0.62995577  0.51666667  1.0
  P  P5774  1  0.18797251  0.75495577  0.51666667  1.0
  P  P5775  1  0.18797251  0.87995577  0.51666667  1.0
  P  P5776  1  0.28797251  0.00495577  0.51666667  1.0
  P  P5777  1  0.28797251  0.12995577  0.51666667  1.0
  P  P5778  1  0.28797251  0.25495577  0.51666667  1.0
  P  P5779  1  0.28797251  0.37995577  0.51666667  1.0
  P  P5780  1  0.28797251  0.50495577  0.51666667  1.0
  P  P5781  1  0.28797251  0.62995577  0.51666667  1.0
  P  P5782  1  0.28797251  0.75495577  0.51666667  1.0
  P  P5783  1  0.28797251  0.87995577  0.51666667  1.0
  P  P5784  1  0.38797251  0.00495577  0.51666667  1.0
  P  P5785  1  0.38797251  0.12995577  0.51666667  1.0
  P  P5786  1  0.38797251  0.25495577  0.51666667  1.0
  P  P5787  1  0.38797251  0.37995577  0.51666667  1.0
  P  P5788  1  0.38797251  0.50495577  0.51666667  1.0
  P  P5789  1  0.38797251  0.62995577  0.51666667  1.0
  P  P5790  1  0.38797251  0.75495577  0.51666667  1.0
  P  P5791  1  0.38797251  0.87995577  0.51666667  1.0
  P  P5792  1  0.48797251  0.00495577  0.51666667  1.0
  P  P5793  1  0.48797251  0.12995577  0.51666667  1.0
  P  P5794  1  0.48797251  0.25495577  0.51666667  1.0
  P  P5795  1  0.48797251  0.37995577  0.51666667  1.0
  P  P5796  1  0.48797251  0.50495577  0.51666667  1.0
  P  P5797  1  0.48797251  0.62995577  0.51666667  1.0
  P  P5798  1  0.48797251  0.75495577  0.51666667  1.0
  P  P5799  1  0.48797251  0.87995577  0.51666667  1.0
  P  P5800  1  0.58797251  0.00495577  0.51666667  1.0
  P  P5801  1  0.58797251  0.12995577  0.51666667  1.0
  P  P5802  1  0.58797251  0.25495577  0.51666667  1.0
  P  P5803  1  0.58797251  0.37995577  0.51666667  1.0
  P  P5804  1  0.58797251  0.50495577  0.51666667  1.0
  P  P5805  1  0.58797251  0.62995577  0.51666667  1.0
  P  P5806  1  0.58797251  0.75495577  0.51666667  1.0
  P  P5807  1  0.58797251  0.87995577  0.51666667  1.0
  P  P5808  1  0.68797251  0.00495577  0.51666667  1.0
  P  P5809  1  0.68797251  0.12995577  0.51666667  1.0
  P  P5810  1  0.68797251  0.25495577  0.51666667  1.0
  P  P5811  1  0.68797251  0.37995577  0.51666667  1.0
  P  P5812  1  0.68797251  0.50495577  0.51666667  1.0
  P  P5813  1  0.68797251  0.62995577  0.51666667  1.0
  P  P5814  1  0.68797251  0.75495577  0.51666667  1.0
  P  P5815  1  0.68797251  0.87995577  0.51666667  1.0
  P  P5816  1  0.78797251  0.00495577  0.51666667  1.0
  P  P5817  1  0.78797251  0.12995577  0.51666667  1.0
  P  P5818  1  0.78797251  0.25495577  0.51666667  1.0
  P  P5819  1  0.78797251  0.37995577  0.51666667  1.0
  P  P5820  1  0.78797251  0.50495577  0.51666667  1.0
  P  P5821  1  0.78797251  0.62995577  0.51666667  1.0
  P  P5822  1  0.78797251  0.75495577  0.51666667  1.0
  P  P5823  1  0.78797251  0.87995577  0.51666667  1.0
  P  P5824  1  0.88797251  0.00495577  0.51666667  1.0
  P  P5825  1  0.88797251  0.12995577  0.51666667  1.0
  P  P5826  1  0.88797251  0.25495577  0.51666667  1.0
  P  P5827  1  0.88797251  0.37995577  0.51666667  1.0
  P  P5828  1  0.88797251  0.50495577  0.51666667  1.0
  P  P5829  1  0.88797251  0.62995577  0.51666667  1.0
  P  P5830  1  0.88797251  0.75495577  0.51666667  1.0
  P  P5831  1  0.88797251  0.87995577  0.51666667  1.0
  P  P5832  1  0.98797251  0.00495577  0.51666667  1.0
  P  P5833  1  0.98797251  0.12995577  0.51666667  1.0
  P  P5834  1  0.98797251  0.25495577  0.51666667  1.0
  P  P5835  1  0.98797251  0.37995577  0.51666667  1.0
  P  P5836  1  0.98797251  0.50495577  0.51666667  1.0
  P  P5837  1  0.98797251  0.62995577  0.51666667  1.0
  P  P5838  1  0.98797251  0.75495577  0.51666667  1.0
  P  P5839  1  0.98797251  0.87995577  0.51666667  1.0
  P  P5840  1  0.01202749  0.12004423  0.48333333  1.0
  P  P5841  1  0.01202749  0.24504423  0.48333333  1.0
  P  P5842  1  0.01202749  0.37004423  0.48333333  1.0
  P  P5843  1  0.01202749  0.49504423  0.48333333  1.0
  P  P5844  1  0.01202749  0.62004423  0.48333333  1.0
  P  P5845  1  0.01202749  0.74504423  0.48333333  1.0
  P  P5846  1  0.01202749  0.87004423  0.48333333  1.0
  P  P5847  1  0.01202749  0.99504423  0.48333333  1.0
  P  P5848  1  0.11202749  0.12004423  0.48333333  1.0
  P  P5849  1  0.11202749  0.24504423  0.48333333  1.0
  P  P5850  1  0.11202749  0.37004423  0.48333333  1.0
  P  P5851  1  0.11202749  0.49504423  0.48333333  1.0
  P  P5852  1  0.11202749  0.62004423  0.48333333  1.0
  P  P5853  1  0.11202749  0.74504423  0.48333333  1.0
  P  P5854  1  0.11202749  0.87004423  0.48333333  1.0
  P  P5855  1  0.11202749  0.99504423  0.48333333  1.0
  P  P5856  1  0.21202749  0.12004423  0.48333333  1.0
  P  P5857  1  0.21202749  0.24504423  0.48333333  1.0
  P  P5858  1  0.21202749  0.37004423  0.48333333  1.0
  P  P5859  1  0.21202749  0.49504423  0.48333333  1.0
  P  P5860  1  0.21202749  0.62004423  0.48333333  1.0
  P  P5861  1  0.21202749  0.74504423  0.48333333  1.0
  P  P5862  1  0.21202749  0.87004423  0.48333333  1.0
  P  P5863  1  0.21202749  0.99504423  0.48333333  1.0
  P  P5864  1  0.31202749  0.12004423  0.48333333  1.0
  P  P5865  1  0.31202749  0.24504423  0.48333333  1.0
  P  P5866  1  0.31202749  0.37004423  0.48333333  1.0
  P  P5867  1  0.31202749  0.49504423  0.48333333  1.0
  P  P5868  1  0.31202749  0.62004423  0.48333333  1.0
  P  P5869  1  0.31202749  0.74504423  0.48333333  1.0
  P  P5870  1  0.31202749  0.87004423  0.48333333  1.0
  P  P5871  1  0.31202749  0.99504423  0.48333333  1.0
  P  P5872  1  0.41202749  0.12004423  0.48333333  1.0
  P  P5873  1  0.41202749  0.24504423  0.48333333  1.0
  P  P5874  1  0.41202749  0.37004423  0.48333333  1.0
  P  P5875  1  0.41202749  0.49504423  0.48333333  1.0
  P  P5876  1  0.41202749  0.62004423  0.48333333  1.0
  P  P5877  1  0.41202749  0.74504423  0.48333333  1.0
  P  P5878  1  0.41202749  0.87004423  0.48333333  1.0
  P  P5879  1  0.41202749  0.99504423  0.48333333  1.0
  P  P5880  1  0.51202749  0.12004423  0.48333333  1.0
  P  P5881  1  0.51202749  0.24504423  0.48333333  1.0
  P  P5882  1  0.51202749  0.37004423  0.48333333  1.0
  P  P5883  1  0.51202749  0.49504423  0.48333333  1.0
  P  P5884  1  0.51202749  0.62004423  0.48333333  1.0
  P  P5885  1  0.51202749  0.74504423  0.48333333  1.0
  P  P5886  1  0.51202749  0.87004423  0.48333333  1.0
  P  P5887  1  0.51202749  0.99504423  0.48333333  1.0
  P  P5888  1  0.61202749  0.12004423  0.48333333  1.0
  P  P5889  1  0.61202749  0.24504423  0.48333333  1.0
  P  P5890  1  0.61202749  0.37004423  0.48333333  1.0
  P  P5891  1  0.61202749  0.49504423  0.48333333  1.0
  P  P5892  1  0.61202749  0.62004423  0.48333333  1.0
  P  P5893  1  0.61202749  0.74504423  0.48333333  1.0
  P  P5894  1  0.61202749  0.87004423  0.48333333  1.0
  P  P5895  1  0.61202749  0.99504423  0.48333333  1.0
  P  P5896  1  0.71202749  0.12004423  0.48333333  1.0
  P  P5897  1  0.71202749  0.24504423  0.48333333  1.0
  P  P5898  1  0.71202749  0.37004423  0.48333333  1.0
  P  P5899  1  0.71202749  0.49504423  0.48333333  1.0
  P  P5900  1  0.71202749  0.62004423  0.48333333  1.0
  P  P5901  1  0.71202749  0.74504423  0.48333333  1.0
  P  P5902  1  0.71202749  0.87004423  0.48333333  1.0
  P  P5903  1  0.71202749  0.99504423  0.48333333  1.0
  P  P5904  1  0.81202749  0.12004423  0.48333333  1.0
  P  P5905  1  0.81202749  0.24504423  0.48333333  1.0
  P  P5906  1  0.81202749  0.37004423  0.48333333  1.0
  P  P5907  1  0.81202749  0.49504423  0.48333333  1.0
  P  P5908  1  0.81202749  0.62004423  0.48333333  1.0
  P  P5909  1  0.81202749  0.74504423  0.48333333  1.0
  P  P5910  1  0.81202749  0.87004423  0.48333333  1.0
  P  P5911  1  0.81202749  0.99504423  0.48333333  1.0
  P  P5912  1  0.91202749  0.12004423  0.48333333  1.0
  P  P5913  1  0.91202749  0.24504423  0.48333333  1.0
  P  P5914  1  0.91202749  0.37004423  0.48333333  1.0
  P  P5915  1  0.91202749  0.49504423  0.48333333  1.0
  P  P5916  1  0.91202749  0.62004423  0.48333333  1.0
  P  P5917  1  0.91202749  0.74504423  0.48333333  1.0
  P  P5918  1  0.91202749  0.87004423  0.48333333  1.0
  P  P5919  1  0.91202749  0.99504423  0.48333333  1.0
  P  P5920  1  0.03797251  0.05754423  0.51666667  1.0
  P  P5921  1  0.03797251  0.18254423  0.51666667  1.0
  P  P5922  1  0.03797251  0.30754423  0.51666667  1.0
  P  P5923  1  0.03797251  0.43254423  0.51666667  1.0
  P  P5924  1  0.03797251  0.55754423  0.51666667  1.0
  P  P5925  1  0.03797251  0.68254423  0.51666667  1.0
  P  P5926  1  0.03797251  0.80754423  0.51666667  1.0
  P  P5927  1  0.03797251  0.93254423  0.51666667  1.0
  P  P5928  1  0.13797251  0.05754423  0.51666667  1.0
  P  P5929  1  0.13797251  0.18254423  0.51666667  1.0
  P  P5930  1  0.13797251  0.30754423  0.51666667  1.0
  P  P5931  1  0.13797251  0.43254423  0.51666667  1.0
  P  P5932  1  0.13797251  0.55754423  0.51666667  1.0
  P  P5933  1  0.13797251  0.68254423  0.51666667  1.0
  P  P5934  1  0.13797251  0.80754423  0.51666667  1.0
  P  P5935  1  0.13797251  0.93254423  0.51666667  1.0
  P  P5936  1  0.23797251  0.05754423  0.51666667  1.0
  P  P5937  1  0.23797251  0.18254423  0.51666667  1.0
  P  P5938  1  0.23797251  0.30754423  0.51666667  1.0
  P  P5939  1  0.23797251  0.43254423  0.51666667  1.0
  P  P5940  1  0.23797251  0.55754423  0.51666667  1.0
  P  P5941  1  0.23797251  0.68254423  0.51666667  1.0
  P  P5942  1  0.23797251  0.80754423  0.51666667  1.0
  P  P5943  1  0.23797251  0.93254423  0.51666667  1.0
  P  P5944  1  0.33797251  0.05754423  0.51666667  1.0
  P  P5945  1  0.33797251  0.18254423  0.51666667  1.0
  P  P5946  1  0.33797251  0.30754423  0.51666667  1.0
  P  P5947  1  0.33797251  0.43254423  0.51666667  1.0
  P  P5948  1  0.33797251  0.55754423  0.51666667  1.0
  P  P5949  1  0.33797251  0.68254423  0.51666667  1.0
  P  P5950  1  0.33797251  0.80754423  0.51666667  1.0
  P  P5951  1  0.33797251  0.93254423  0.51666667  1.0
  P  P5952  1  0.43797251  0.05754423  0.51666667  1.0
  P  P5953  1  0.43797251  0.18254423  0.51666667  1.0
  P  P5954  1  0.43797251  0.30754423  0.51666667  1.0
  P  P5955  1  0.43797251  0.43254423  0.51666667  1.0
  P  P5956  1  0.43797251  0.55754423  0.51666667  1.0
  P  P5957  1  0.43797251  0.68254423  0.51666667  1.0
  P  P5958  1  0.43797251  0.80754423  0.51666667  1.0
  P  P5959  1  0.43797251  0.93254423  0.51666667  1.0
  P  P5960  1  0.53797251  0.05754423  0.51666667  1.0
  P  P5961  1  0.53797251  0.18254423  0.51666667  1.0
  P  P5962  1  0.53797251  0.30754423  0.51666667  1.0
  P  P5963  1  0.53797251  0.43254423  0.51666667  1.0
  P  P5964  1  0.53797251  0.55754423  0.51666667  1.0
  P  P5965  1  0.53797251  0.68254423  0.51666667  1.0
  P  P5966  1  0.53797251  0.80754423  0.51666667  1.0
  P  P5967  1  0.53797251  0.93254423  0.51666667  1.0
  P  P5968  1  0.63797251  0.05754423  0.51666667  1.0
  P  P5969  1  0.63797251  0.18254423  0.51666667  1.0
  P  P5970  1  0.63797251  0.30754423  0.51666667  1.0
  P  P5971  1  0.63797251  0.43254423  0.51666667  1.0
  P  P5972  1  0.63797251  0.55754423  0.51666667  1.0
  P  P5973  1  0.63797251  0.68254423  0.51666667  1.0
  P  P5974  1  0.63797251  0.80754423  0.51666667  1.0
  P  P5975  1  0.63797251  0.93254423  0.51666667  1.0
  P  P5976  1  0.73797251  0.05754423  0.51666667  1.0
  P  P5977  1  0.73797251  0.18254423  0.51666667  1.0
  P  P5978  1  0.73797251  0.30754423  0.51666667  1.0
  P  P5979  1  0.73797251  0.43254423  0.51666667  1.0
  P  P5980  1  0.73797251  0.55754423  0.51666667  1.0
  P  P5981  1  0.73797251  0.68254423  0.51666667  1.0
  P  P5982  1  0.73797251  0.80754423  0.51666667  1.0
  P  P5983  1  0.73797251  0.93254423  0.51666667  1.0
  P  P5984  1  0.83797251  0.05754423  0.51666667  1.0
  P  P5985  1  0.83797251  0.18254423  0.51666667  1.0
  P  P5986  1  0.83797251  0.30754423  0.51666667  1.0
  P  P5987  1  0.83797251  0.43254423  0.51666667  1.0
  P  P5988  1  0.83797251  0.55754423  0.51666667  1.0
  P  P5989  1  0.83797251  0.68254423  0.51666667  1.0
  P  P5990  1  0.83797251  0.80754423  0.51666667  1.0
  P  P5991  1  0.83797251  0.93254423  0.51666667  1.0
  P  P5992  1  0.93797251  0.05754423  0.51666667  1.0
  P  P5993  1  0.93797251  0.18254423  0.51666667  1.0
  P  P5994  1  0.93797251  0.30754423  0.51666667  1.0
  P  P5995  1  0.93797251  0.43254423  0.51666667  1.0
  P  P5996  1  0.93797251  0.55754423  0.51666667  1.0
  P  P5997  1  0.93797251  0.68254423  0.51666667  1.0
  P  P5998  1  0.93797251  0.80754423  0.51666667  1.0
  P  P5999  1  0.93797251  0.93254423  0.51666667  1.0
  P  P6000  1  0.06202749  0.06745577  0.48333333  1.0
  P  P6001  1  0.06202749  0.19245577  0.48333333  1.0
  P  P6002  1  0.06202749  0.31745577  0.48333333  1.0
  P  P6003  1  0.06202749  0.44245577  0.48333333  1.0
  P  P6004  1  0.06202749  0.56745577  0.48333333  1.0
  P  P6005  1  0.06202749  0.69245577  0.48333333  1.0
  P  P6006  1  0.06202749  0.81745577  0.48333333  1.0
  P  P6007  1  0.06202749  0.94245577  0.48333333  1.0
  P  P6008  1  0.16202749  0.06745577  0.48333333  1.0
  P  P6009  1  0.16202749  0.19245577  0.48333333  1.0
  P  P6010  1  0.16202749  0.31745577  0.48333333  1.0
  P  P6011  1  0.16202749  0.44245577  0.48333333  1.0
  P  P6012  1  0.16202749  0.56745577  0.48333333  1.0
  P  P6013  1  0.16202749  0.69245577  0.48333333  1.0
  P  P6014  1  0.16202749  0.81745577  0.48333333  1.0
  P  P6015  1  0.16202749  0.94245577  0.48333333  1.0
  P  P6016  1  0.26202749  0.06745577  0.48333333  1.0
  P  P6017  1  0.26202749  0.19245577  0.48333333  1.0
  P  P6018  1  0.26202749  0.31745577  0.48333333  1.0
  P  P6019  1  0.26202749  0.44245577  0.48333333  1.0
  P  P6020  1  0.26202749  0.56745577  0.48333333  1.0
  P  P6021  1  0.26202749  0.69245577  0.48333333  1.0
  P  P6022  1  0.26202749  0.81745577  0.48333333  1.0
  P  P6023  1  0.26202749  0.94245577  0.48333333  1.0
  P  P6024  1  0.36202749  0.06745577  0.48333333  1.0
  P  P6025  1  0.36202749  0.19245577  0.48333333  1.0
  P  P6026  1  0.36202749  0.31745577  0.48333333  1.0
  P  P6027  1  0.36202749  0.44245577  0.48333333  1.0
  P  P6028  1  0.36202749  0.56745577  0.48333333  1.0
  P  P6029  1  0.36202749  0.69245577  0.48333333  1.0
  P  P6030  1  0.36202749  0.81745577  0.48333333  1.0
  P  P6031  1  0.36202749  0.94245577  0.48333333  1.0
  P  P6032  1  0.46202749  0.06745577  0.48333333  1.0
  P  P6033  1  0.46202749  0.19245577  0.48333333  1.0
  P  P6034  1  0.46202749  0.31745577  0.48333333  1.0
  P  P6035  1  0.46202749  0.44245577  0.48333333  1.0
  P  P6036  1  0.46202749  0.56745577  0.48333333  1.0
  P  P6037  1  0.46202749  0.69245577  0.48333333  1.0
  P  P6038  1  0.46202749  0.81745577  0.48333333  1.0
  P  P6039  1  0.46202749  0.94245577  0.48333333  1.0
  P  P6040  1  0.56202749  0.06745577  0.48333333  1.0
  P  P6041  1  0.56202749  0.19245577  0.48333333  1.0
  P  P6042  1  0.56202749  0.31745577  0.48333333  1.0
  P  P6043  1  0.56202749  0.44245577  0.48333333  1.0
  P  P6044  1  0.56202749  0.56745577  0.48333333  1.0
  P  P6045  1  0.56202749  0.69245577  0.48333333  1.0
  P  P6046  1  0.56202749  0.81745577  0.48333333  1.0
  P  P6047  1  0.56202749  0.94245577  0.48333333  1.0
  P  P6048  1  0.66202749  0.06745577  0.48333333  1.0
  P  P6049  1  0.66202749  0.19245577  0.48333333  1.0
  P  P6050  1  0.66202749  0.31745577  0.48333333  1.0
  P  P6051  1  0.66202749  0.44245577  0.48333333  1.0
  P  P6052  1  0.66202749  0.56745577  0.48333333  1.0
  P  P6053  1  0.66202749  0.69245577  0.48333333  1.0
  P  P6054  1  0.66202749  0.81745577  0.48333333  1.0
  P  P6055  1  0.66202749  0.94245577  0.48333333  1.0
  P  P6056  1  0.76202749  0.06745577  0.48333333  1.0
  P  P6057  1  0.76202749  0.19245577  0.48333333  1.0
  P  P6058  1  0.76202749  0.31745577  0.48333333  1.0
  P  P6059  1  0.76202749  0.44245577  0.48333333  1.0
  P  P6060  1  0.76202749  0.56745577  0.48333333  1.0
  P  P6061  1  0.76202749  0.69245577  0.48333333  1.0
  P  P6062  1  0.76202749  0.81745577  0.48333333  1.0
  P  P6063  1  0.76202749  0.94245577  0.48333333  1.0
  P  P6064  1  0.86202749  0.06745577  0.48333333  1.0
  P  P6065  1  0.86202749  0.19245577  0.48333333  1.0
  P  P6066  1  0.86202749  0.31745577  0.48333333  1.0
  P  P6067  1  0.86202749  0.44245577  0.48333333  1.0
  P  P6068  1  0.86202749  0.56745577  0.48333333  1.0
  P  P6069  1  0.86202749  0.69245577  0.48333333  1.0
  P  P6070  1  0.86202749  0.81745577  0.48333333  1.0
  P  P6071  1  0.86202749  0.94245577  0.48333333  1.0
  P  P6072  1  0.96202749  0.06745577  0.48333333  1.0
  P  P6073  1  0.96202749  0.19245577  0.48333333  1.0
  P  P6074  1  0.96202749  0.31745577  0.48333333  1.0
  P  P6075  1  0.96202749  0.44245577  0.48333333  1.0
  P  P6076  1  0.96202749  0.56745577  0.48333333  1.0
  P  P6077  1  0.96202749  0.69245577  0.48333333  1.0
  P  P6078  1  0.96202749  0.81745577  0.48333333  1.0
  P  P6079  1  0.96202749  0.94245577  0.48333333  1.0
  P  P6080  1  0.05878854  0.01712191  0.55000000  1.0
  P  P6081  1  0.05878854  0.14212191  0.55000000  1.0
  P  P6082  1  0.05878854  0.26712191  0.55000000  1.0
  P  P6083  1  0.05878854  0.39212191  0.55000000  1.0
  P  P6084  1  0.05878854  0.51712191  0.55000000  1.0
  P  P6085  1  0.05878854  0.64212191  0.55000000  1.0
  P  P6086  1  0.05878854  0.76712191  0.55000000  1.0
  P  P6087  1  0.05878854  0.89212191  0.55000000  1.0
  P  P6088  1  0.15878854  0.01712191  0.55000000  1.0
  P  P6089  1  0.15878854  0.14212191  0.55000000  1.0
  P  P6090  1  0.15878854  0.26712191  0.55000000  1.0
  P  P6091  1  0.15878854  0.39212191  0.55000000  1.0
  P  P6092  1  0.15878854  0.51712191  0.55000000  1.0
  P  P6093  1  0.15878854  0.64212191  0.55000000  1.0
  P  P6094  1  0.15878854  0.76712191  0.55000000  1.0
  P  P6095  1  0.15878854  0.89212191  0.55000000  1.0
  P  P6096  1  0.25878854  0.01712191  0.55000000  1.0
  P  P6097  1  0.25878854  0.14212191  0.55000000  1.0
  P  P6098  1  0.25878854  0.26712191  0.55000000  1.0
  P  P6099  1  0.25878854  0.39212191  0.55000000  1.0
  P  P6100  1  0.25878854  0.51712191  0.55000000  1.0
  P  P6101  1  0.25878854  0.64212191  0.55000000  1.0
  P  P6102  1  0.25878854  0.76712191  0.55000000  1.0
  P  P6103  1  0.25878854  0.89212191  0.55000000  1.0
  P  P6104  1  0.35878854  0.01712191  0.55000000  1.0
  P  P6105  1  0.35878854  0.14212191  0.55000000  1.0
  P  P6106  1  0.35878854  0.26712191  0.55000000  1.0
  P  P6107  1  0.35878854  0.39212191  0.55000000  1.0
  P  P6108  1  0.35878854  0.51712191  0.55000000  1.0
  P  P6109  1  0.35878854  0.64212191  0.55000000  1.0
  P  P6110  1  0.35878854  0.76712191  0.55000000  1.0
  P  P6111  1  0.35878854  0.89212191  0.55000000  1.0
  P  P6112  1  0.45878854  0.01712191  0.55000000  1.0
  P  P6113  1  0.45878854  0.14212191  0.55000000  1.0
  P  P6114  1  0.45878854  0.26712191  0.55000000  1.0
  P  P6115  1  0.45878854  0.39212191  0.55000000  1.0
  P  P6116  1  0.45878854  0.51712191  0.55000000  1.0
  P  P6117  1  0.45878854  0.64212191  0.55000000  1.0
  P  P6118  1  0.45878854  0.76712191  0.55000000  1.0
  P  P6119  1  0.45878854  0.89212191  0.55000000  1.0
  P  P6120  1  0.55878854  0.01712191  0.55000000  1.0
  P  P6121  1  0.55878854  0.14212191  0.55000000  1.0
  P  P6122  1  0.55878854  0.26712191  0.55000000  1.0
  P  P6123  1  0.55878854  0.39212191  0.55000000  1.0
  P  P6124  1  0.55878854  0.51712191  0.55000000  1.0
  P  P6125  1  0.55878854  0.64212191  0.55000000  1.0
  P  P6126  1  0.55878854  0.76712191  0.55000000  1.0
  P  P6127  1  0.55878854  0.89212191  0.55000000  1.0
  P  P6128  1  0.65878854  0.01712191  0.55000000  1.0
  P  P6129  1  0.65878854  0.14212191  0.55000000  1.0
  P  P6130  1  0.65878854  0.26712191  0.55000000  1.0
  P  P6131  1  0.65878854  0.39212191  0.55000000  1.0
  P  P6132  1  0.65878854  0.51712191  0.55000000  1.0
  P  P6133  1  0.65878854  0.64212191  0.55000000  1.0
  P  P6134  1  0.65878854  0.76712191  0.55000000  1.0
  P  P6135  1  0.65878854  0.89212191  0.55000000  1.0
  P  P6136  1  0.75878854  0.01712191  0.55000000  1.0
  P  P6137  1  0.75878854  0.14212191  0.55000000  1.0
  P  P6138  1  0.75878854  0.26712191  0.55000000  1.0
  P  P6139  1  0.75878854  0.39212191  0.55000000  1.0
  P  P6140  1  0.75878854  0.51712191  0.55000000  1.0
  P  P6141  1  0.75878854  0.64212191  0.55000000  1.0
  P  P6142  1  0.75878854  0.76712191  0.55000000  1.0
  P  P6143  1  0.75878854  0.89212191  0.55000000  1.0
  P  P6144  1  0.85878854  0.01712191  0.55000000  1.0
  P  P6145  1  0.85878854  0.14212191  0.55000000  1.0
  P  P6146  1  0.85878854  0.26712191  0.55000000  1.0
  P  P6147  1  0.85878854  0.39212191  0.55000000  1.0
  P  P6148  1  0.85878854  0.51712191  0.55000000  1.0
  P  P6149  1  0.85878854  0.64212191  0.55000000  1.0
  P  P6150  1  0.85878854  0.76712191  0.55000000  1.0
  P  P6151  1  0.85878854  0.89212191  0.55000000  1.0
  P  P6152  1  0.95878854  0.01712191  0.55000000  1.0
  P  P6153  1  0.95878854  0.14212191  0.55000000  1.0
  P  P6154  1  0.95878854  0.26712191  0.55000000  1.0
  P  P6155  1  0.95878854  0.39212191  0.55000000  1.0
  P  P6156  1  0.95878854  0.51712191  0.55000000  1.0
  P  P6157  1  0.95878854  0.64212191  0.55000000  1.0
  P  P6158  1  0.95878854  0.76712191  0.55000000  1.0
  P  P6159  1  0.95878854  0.89212191  0.55000000  1.0
  P  P6160  1  0.04121146  0.10787809  0.58333333  1.0
  P  P6161  1  0.04121146  0.23287809  0.58333333  1.0
  P  P6162  1  0.04121146  0.35787809  0.58333333  1.0
  P  P6163  1  0.04121146  0.48287809  0.58333333  1.0
  P  P6164  1  0.04121146  0.60787809  0.58333333  1.0
  P  P6165  1  0.04121146  0.73287809  0.58333333  1.0
  P  P6166  1  0.04121146  0.85787809  0.58333333  1.0
  P  P6167  1  0.04121146  0.98287809  0.58333333  1.0
  P  P6168  1  0.14121146  0.10787809  0.58333333  1.0
  P  P6169  1  0.14121146  0.23287809  0.58333333  1.0
  P  P6170  1  0.14121146  0.35787809  0.58333333  1.0
  P  P6171  1  0.14121146  0.48287809  0.58333333  1.0
  P  P6172  1  0.14121146  0.60787809  0.58333333  1.0
  P  P6173  1  0.14121146  0.73287809  0.58333333  1.0
  P  P6174  1  0.14121146  0.85787809  0.58333333  1.0
  P  P6175  1  0.14121146  0.98287809  0.58333333  1.0
  P  P6176  1  0.24121146  0.10787809  0.58333333  1.0
  P  P6177  1  0.24121146  0.23287809  0.58333333  1.0
  P  P6178  1  0.24121146  0.35787809  0.58333333  1.0
  P  P6179  1  0.24121146  0.48287809  0.58333333  1.0
  P  P6180  1  0.24121146  0.60787809  0.58333333  1.0
  P  P6181  1  0.24121146  0.73287809  0.58333333  1.0
  P  P6182  1  0.24121146  0.85787809  0.58333333  1.0
  P  P6183  1  0.24121146  0.98287809  0.58333333  1.0
  P  P6184  1  0.34121146  0.10787809  0.58333333  1.0
  P  P6185  1  0.34121146  0.23287809  0.58333333  1.0
  P  P6186  1  0.34121146  0.35787809  0.58333333  1.0
  P  P6187  1  0.34121146  0.48287809  0.58333333  1.0
  P  P6188  1  0.34121146  0.60787809  0.58333333  1.0
  P  P6189  1  0.34121146  0.73287809  0.58333333  1.0
  P  P6190  1  0.34121146  0.85787809  0.58333333  1.0
  P  P6191  1  0.34121146  0.98287809  0.58333333  1.0
  P  P6192  1  0.44121146  0.10787809  0.58333333  1.0
  P  P6193  1  0.44121146  0.23287809  0.58333333  1.0
  P  P6194  1  0.44121146  0.35787809  0.58333333  1.0
  P  P6195  1  0.44121146  0.48287809  0.58333333  1.0
  P  P6196  1  0.44121146  0.60787809  0.58333333  1.0
  P  P6197  1  0.44121146  0.73287809  0.58333333  1.0
  P  P6198  1  0.44121146  0.85787809  0.58333333  1.0
  P  P6199  1  0.44121146  0.98287809  0.58333333  1.0
  P  P6200  1  0.54121146  0.10787809  0.58333333  1.0
  P  P6201  1  0.54121146  0.23287809  0.58333333  1.0
  P  P6202  1  0.54121146  0.35787809  0.58333333  1.0
  P  P6203  1  0.54121146  0.48287809  0.58333333  1.0
  P  P6204  1  0.54121146  0.60787809  0.58333333  1.0
  P  P6205  1  0.54121146  0.73287809  0.58333333  1.0
  P  P6206  1  0.54121146  0.85787809  0.58333333  1.0
  P  P6207  1  0.54121146  0.98287809  0.58333333  1.0
  P  P6208  1  0.64121146  0.10787809  0.58333333  1.0
  P  P6209  1  0.64121146  0.23287809  0.58333333  1.0
  P  P6210  1  0.64121146  0.35787809  0.58333333  1.0
  P  P6211  1  0.64121146  0.48287809  0.58333333  1.0
  P  P6212  1  0.64121146  0.60787809  0.58333333  1.0
  P  P6213  1  0.64121146  0.73287809  0.58333333  1.0
  P  P6214  1  0.64121146  0.85787809  0.58333333  1.0
  P  P6215  1  0.64121146  0.98287809  0.58333333  1.0
  P  P6216  1  0.74121146  0.10787809  0.58333333  1.0
  P  P6217  1  0.74121146  0.23287809  0.58333333  1.0
  P  P6218  1  0.74121146  0.35787809  0.58333333  1.0
  P  P6219  1  0.74121146  0.48287809  0.58333333  1.0
  P  P6220  1  0.74121146  0.60787809  0.58333333  1.0
  P  P6221  1  0.74121146  0.73287809  0.58333333  1.0
  P  P6222  1  0.74121146  0.85787809  0.58333333  1.0
  P  P6223  1  0.74121146  0.98287809  0.58333333  1.0
  P  P6224  1  0.84121146  0.10787809  0.58333333  1.0
  P  P6225  1  0.84121146  0.23287809  0.58333333  1.0
  P  P6226  1  0.84121146  0.35787809  0.58333333  1.0
  P  P6227  1  0.84121146  0.48287809  0.58333333  1.0
  P  P6228  1  0.84121146  0.60787809  0.58333333  1.0
  P  P6229  1  0.84121146  0.73287809  0.58333333  1.0
  P  P6230  1  0.84121146  0.85787809  0.58333333  1.0
  P  P6231  1  0.84121146  0.98287809  0.58333333  1.0
  P  P6232  1  0.94121146  0.10787809  0.58333333  1.0
  P  P6233  1  0.94121146  0.23287809  0.58333333  1.0
  P  P6234  1  0.94121146  0.35787809  0.58333333  1.0
  P  P6235  1  0.94121146  0.48287809  0.58333333  1.0
  P  P6236  1  0.94121146  0.60787809  0.58333333  1.0
  P  P6237  1  0.94121146  0.73287809  0.58333333  1.0
  P  P6238  1  0.94121146  0.85787809  0.58333333  1.0
  P  P6239  1  0.94121146  0.98287809  0.58333333  1.0
  P  P6240  1  0.00878854  0.04537809  0.55000000  1.0
  P  P6241  1  0.00878854  0.17037809  0.55000000  1.0
  P  P6242  1  0.00878854  0.29537809  0.55000000  1.0
  P  P6243  1  0.00878854  0.42037809  0.55000000  1.0
  P  P6244  1  0.00878854  0.54537809  0.55000000  1.0
  P  P6245  1  0.00878854  0.67037809  0.55000000  1.0
  P  P6246  1  0.00878854  0.79537809  0.55000000  1.0
  P  P6247  1  0.00878854  0.92037809  0.55000000  1.0
  P  P6248  1  0.10878854  0.04537809  0.55000000  1.0
  P  P6249  1  0.10878854  0.17037809  0.55000000  1.0
  P  P6250  1  0.10878854  0.29537809  0.55000000  1.0
  P  P6251  1  0.10878854  0.42037809  0.55000000  1.0
  P  P6252  1  0.10878854  0.54537809  0.55000000  1.0
  P  P6253  1  0.10878854  0.67037809  0.55000000  1.0
  P  P6254  1  0.10878854  0.79537809  0.55000000  1.0
  P  P6255  1  0.10878854  0.92037809  0.55000000  1.0
  P  P6256  1  0.20878854  0.04537809  0.55000000  1.0
  P  P6257  1  0.20878854  0.17037809  0.55000000  1.0
  P  P6258  1  0.20878854  0.29537809  0.55000000  1.0
  P  P6259  1  0.20878854  0.42037809  0.55000000  1.0
  P  P6260  1  0.20878854  0.54537809  0.55000000  1.0
  P  P6261  1  0.20878854  0.67037809  0.55000000  1.0
  P  P6262  1  0.20878854  0.79537809  0.55000000  1.0
  P  P6263  1  0.20878854  0.92037809  0.55000000  1.0
  P  P6264  1  0.30878854  0.04537809  0.55000000  1.0
  P  P6265  1  0.30878854  0.17037809  0.55000000  1.0
  P  P6266  1  0.30878854  0.29537809  0.55000000  1.0
  P  P6267  1  0.30878854  0.42037809  0.55000000  1.0
  P  P6268  1  0.30878854  0.54537809  0.55000000  1.0
  P  P6269  1  0.30878854  0.67037809  0.55000000  1.0
  P  P6270  1  0.30878854  0.79537809  0.55000000  1.0
  P  P6271  1  0.30878854  0.92037809  0.55000000  1.0
  P  P6272  1  0.40878854  0.04537809  0.55000000  1.0
  P  P6273  1  0.40878854  0.17037809  0.55000000  1.0
  P  P6274  1  0.40878854  0.29537809  0.55000000  1.0
  P  P6275  1  0.40878854  0.42037809  0.55000000  1.0
  P  P6276  1  0.40878854  0.54537809  0.55000000  1.0
  P  P6277  1  0.40878854  0.67037809  0.55000000  1.0
  P  P6278  1  0.40878854  0.79537809  0.55000000  1.0
  P  P6279  1  0.40878854  0.92037809  0.55000000  1.0
  P  P6280  1  0.50878854  0.04537809  0.55000000  1.0
  P  P6281  1  0.50878854  0.17037809  0.55000000  1.0
  P  P6282  1  0.50878854  0.29537809  0.55000000  1.0
  P  P6283  1  0.50878854  0.42037809  0.55000000  1.0
  P  P6284  1  0.50878854  0.54537809  0.55000000  1.0
  P  P6285  1  0.50878854  0.67037809  0.55000000  1.0
  P  P6286  1  0.50878854  0.79537809  0.55000000  1.0
  P  P6287  1  0.50878854  0.92037809  0.55000000  1.0
  P  P6288  1  0.60878854  0.04537809  0.55000000  1.0
  P  P6289  1  0.60878854  0.17037809  0.55000000  1.0
  P  P6290  1  0.60878854  0.29537809  0.55000000  1.0
  P  P6291  1  0.60878854  0.42037809  0.55000000  1.0
  P  P6292  1  0.60878854  0.54537809  0.55000000  1.0
  P  P6293  1  0.60878854  0.67037809  0.55000000  1.0
  P  P6294  1  0.60878854  0.79537809  0.55000000  1.0
  P  P6295  1  0.60878854  0.92037809  0.55000000  1.0
  P  P6296  1  0.70878854  0.04537809  0.55000000  1.0
  P  P6297  1  0.70878854  0.17037809  0.55000000  1.0
  P  P6298  1  0.70878854  0.29537809  0.55000000  1.0
  P  P6299  1  0.70878854  0.42037809  0.55000000  1.0
  P  P6300  1  0.70878854  0.54537809  0.55000000  1.0
  P  P6301  1  0.70878854  0.67037809  0.55000000  1.0
  P  P6302  1  0.70878854  0.79537809  0.55000000  1.0
  P  P6303  1  0.70878854  0.92037809  0.55000000  1.0
  P  P6304  1  0.80878854  0.04537809  0.55000000  1.0
  P  P6305  1  0.80878854  0.17037809  0.55000000  1.0
  P  P6306  1  0.80878854  0.29537809  0.55000000  1.0
  P  P6307  1  0.80878854  0.42037809  0.55000000  1.0
  P  P6308  1  0.80878854  0.54537809  0.55000000  1.0
  P  P6309  1  0.80878854  0.67037809  0.55000000  1.0
  P  P6310  1  0.80878854  0.79537809  0.55000000  1.0
  P  P6311  1  0.80878854  0.92037809  0.55000000  1.0
  P  P6312  1  0.90878854  0.04537809  0.55000000  1.0
  P  P6313  1  0.90878854  0.17037809  0.55000000  1.0
  P  P6314  1  0.90878854  0.29537809  0.55000000  1.0
  P  P6315  1  0.90878854  0.42037809  0.55000000  1.0
  P  P6316  1  0.90878854  0.54537809  0.55000000  1.0
  P  P6317  1  0.90878854  0.67037809  0.55000000  1.0
  P  P6318  1  0.90878854  0.79537809  0.55000000  1.0
  P  P6319  1  0.90878854  0.92037809  0.55000000  1.0
  P  P6320  1  0.09121146  0.07962191  0.58333333  1.0
  P  P6321  1  0.09121146  0.20462191  0.58333333  1.0
  P  P6322  1  0.09121146  0.32962191  0.58333333  1.0
  P  P6323  1  0.09121146  0.45462191  0.58333333  1.0
  P  P6324  1  0.09121146  0.57962191  0.58333333  1.0
  P  P6325  1  0.09121146  0.70462191  0.58333333  1.0
  P  P6326  1  0.09121146  0.82962191  0.58333333  1.0
  P  P6327  1  0.09121146  0.95462191  0.58333333  1.0
  P  P6328  1  0.19121146  0.07962191  0.58333333  1.0
  P  P6329  1  0.19121146  0.20462191  0.58333333  1.0
  P  P6330  1  0.19121146  0.32962191  0.58333333  1.0
  P  P6331  1  0.19121146  0.45462191  0.58333333  1.0
  P  P6332  1  0.19121146  0.57962191  0.58333333  1.0
  P  P6333  1  0.19121146  0.70462191  0.58333333  1.0
  P  P6334  1  0.19121146  0.82962191  0.58333333  1.0
  P  P6335  1  0.19121146  0.95462191  0.58333333  1.0
  P  P6336  1  0.29121146  0.07962191  0.58333333  1.0
  P  P6337  1  0.29121146  0.20462191  0.58333333  1.0
  P  P6338  1  0.29121146  0.32962191  0.58333333  1.0
  P  P6339  1  0.29121146  0.45462191  0.58333333  1.0
  P  P6340  1  0.29121146  0.57962191  0.58333333  1.0
  P  P6341  1  0.29121146  0.70462191  0.58333333  1.0
  P  P6342  1  0.29121146  0.82962191  0.58333333  1.0
  P  P6343  1  0.29121146  0.95462191  0.58333333  1.0
  P  P6344  1  0.39121146  0.07962191  0.58333333  1.0
  P  P6345  1  0.39121146  0.20462191  0.58333333  1.0
  P  P6346  1  0.39121146  0.32962191  0.58333333  1.0
  P  P6347  1  0.39121146  0.45462191  0.58333333  1.0
  P  P6348  1  0.39121146  0.57962191  0.58333333  1.0
  P  P6349  1  0.39121146  0.70462191  0.58333333  1.0
  P  P6350  1  0.39121146  0.82962191  0.58333333  1.0
  P  P6351  1  0.39121146  0.95462191  0.58333333  1.0
  P  P6352  1  0.49121146  0.07962191  0.58333333  1.0
  P  P6353  1  0.49121146  0.20462191  0.58333333  1.0
  P  P6354  1  0.49121146  0.32962191  0.58333333  1.0
  P  P6355  1  0.49121146  0.45462191  0.58333333  1.0
  P  P6356  1  0.49121146  0.57962191  0.58333333  1.0
  P  P6357  1  0.49121146  0.70462191  0.58333333  1.0
  P  P6358  1  0.49121146  0.82962191  0.58333333  1.0
  P  P6359  1  0.49121146  0.95462191  0.58333333  1.0
  P  P6360  1  0.59121146  0.07962191  0.58333333  1.0
  P  P6361  1  0.59121146  0.20462191  0.58333333  1.0
  P  P6362  1  0.59121146  0.32962191  0.58333333  1.0
  P  P6363  1  0.59121146  0.45462191  0.58333333  1.0
  P  P6364  1  0.59121146  0.57962191  0.58333333  1.0
  P  P6365  1  0.59121146  0.70462191  0.58333333  1.0
  P  P6366  1  0.59121146  0.82962191  0.58333333  1.0
  P  P6367  1  0.59121146  0.95462191  0.58333333  1.0
  P  P6368  1  0.69121146  0.07962191  0.58333333  1.0
  P  P6369  1  0.69121146  0.20462191  0.58333333  1.0
  P  P6370  1  0.69121146  0.32962191  0.58333333  1.0
  P  P6371  1  0.69121146  0.45462191  0.58333333  1.0
  P  P6372  1  0.69121146  0.57962191  0.58333333  1.0
  P  P6373  1  0.69121146  0.70462191  0.58333333  1.0
  P  P6374  1  0.69121146  0.82962191  0.58333333  1.0
  P  P6375  1  0.69121146  0.95462191  0.58333333  1.0
  P  P6376  1  0.79121146  0.07962191  0.58333333  1.0
  P  P6377  1  0.79121146  0.20462191  0.58333333  1.0
  P  P6378  1  0.79121146  0.32962191  0.58333333  1.0
  P  P6379  1  0.79121146  0.45462191  0.58333333  1.0
  P  P6380  1  0.79121146  0.57962191  0.58333333  1.0
  P  P6381  1  0.79121146  0.70462191  0.58333333  1.0
  P  P6382  1  0.79121146  0.82962191  0.58333333  1.0
  P  P6383  1  0.79121146  0.95462191  0.58333333  1.0
  P  P6384  1  0.89121146  0.07962191  0.58333333  1.0
  P  P6385  1  0.89121146  0.20462191  0.58333333  1.0
  P  P6386  1  0.89121146  0.32962191  0.58333333  1.0
  P  P6387  1  0.89121146  0.45462191  0.58333333  1.0
  P  P6388  1  0.89121146  0.57962191  0.58333333  1.0
  P  P6389  1  0.89121146  0.70462191  0.58333333  1.0
  P  P6390  1  0.89121146  0.82962191  0.58333333  1.0
  P  P6391  1  0.89121146  0.95462191  0.58333333  1.0
  P  P6392  1  0.99121146  0.07962191  0.58333333  1.0
  P  P6393  1  0.99121146  0.20462191  0.58333333  1.0
  P  P6394  1  0.99121146  0.32962191  0.58333333  1.0
  P  P6395  1  0.99121146  0.45462191  0.58333333  1.0
  P  P6396  1  0.99121146  0.57962191  0.58333333  1.0
  P  P6397  1  0.99121146  0.70462191  0.58333333  1.0
  P  P6398  1  0.99121146  0.82962191  0.58333333  1.0
  P  P6399  1  0.99121146  0.95462191  0.58333333  1.0
  P  P6400  1  0.08797251  0.00495577  0.58333333  1.0
  P  P6401  1  0.08797251  0.12995577  0.58333333  1.0
  P  P6402  1  0.08797251  0.25495577  0.58333333  1.0
  P  P6403  1  0.08797251  0.37995577  0.58333333  1.0
  P  P6404  1  0.08797251  0.50495577  0.58333333  1.0
  P  P6405  1  0.08797251  0.62995577  0.58333333  1.0
  P  P6406  1  0.08797251  0.75495577  0.58333333  1.0
  P  P6407  1  0.08797251  0.87995577  0.58333333  1.0
  P  P6408  1  0.18797251  0.00495577  0.58333333  1.0
  P  P6409  1  0.18797251  0.12995577  0.58333333  1.0
  P  P6410  1  0.18797251  0.25495577  0.58333333  1.0
  P  P6411  1  0.18797251  0.37995577  0.58333333  1.0
  P  P6412  1  0.18797251  0.50495577  0.58333333  1.0
  P  P6413  1  0.18797251  0.62995577  0.58333333  1.0
  P  P6414  1  0.18797251  0.75495577  0.58333333  1.0
  P  P6415  1  0.18797251  0.87995577  0.58333333  1.0
  P  P6416  1  0.28797251  0.00495577  0.58333333  1.0
  P  P6417  1  0.28797251  0.12995577  0.58333333  1.0
  P  P6418  1  0.28797251  0.25495577  0.58333333  1.0
  P  P6419  1  0.28797251  0.37995577  0.58333333  1.0
  P  P6420  1  0.28797251  0.50495577  0.58333333  1.0
  P  P6421  1  0.28797251  0.62995577  0.58333333  1.0
  P  P6422  1  0.28797251  0.75495577  0.58333333  1.0
  P  P6423  1  0.28797251  0.87995577  0.58333333  1.0
  P  P6424  1  0.38797251  0.00495577  0.58333333  1.0
  P  P6425  1  0.38797251  0.12995577  0.58333333  1.0
  P  P6426  1  0.38797251  0.25495577  0.58333333  1.0
  P  P6427  1  0.38797251  0.37995577  0.58333333  1.0
  P  P6428  1  0.38797251  0.50495577  0.58333333  1.0
  P  P6429  1  0.38797251  0.62995577  0.58333333  1.0
  P  P6430  1  0.38797251  0.75495577  0.58333333  1.0
  P  P6431  1  0.38797251  0.87995577  0.58333333  1.0
  P  P6432  1  0.48797251  0.00495577  0.58333333  1.0
  P  P6433  1  0.48797251  0.12995577  0.58333333  1.0
  P  P6434  1  0.48797251  0.25495577  0.58333333  1.0
  P  P6435  1  0.48797251  0.37995577  0.58333333  1.0
  P  P6436  1  0.48797251  0.50495577  0.58333333  1.0
  P  P6437  1  0.48797251  0.62995577  0.58333333  1.0
  P  P6438  1  0.48797251  0.75495577  0.58333333  1.0
  P  P6439  1  0.48797251  0.87995577  0.58333333  1.0
  P  P6440  1  0.58797251  0.00495577  0.58333333  1.0
  P  P6441  1  0.58797251  0.12995577  0.58333333  1.0
  P  P6442  1  0.58797251  0.25495577  0.58333333  1.0
  P  P6443  1  0.58797251  0.37995577  0.58333333  1.0
  P  P6444  1  0.58797251  0.50495577  0.58333333  1.0
  P  P6445  1  0.58797251  0.62995577  0.58333333  1.0
  P  P6446  1  0.58797251  0.75495577  0.58333333  1.0
  P  P6447  1  0.58797251  0.87995577  0.58333333  1.0
  P  P6448  1  0.68797251  0.00495577  0.58333333  1.0
  P  P6449  1  0.68797251  0.12995577  0.58333333  1.0
  P  P6450  1  0.68797251  0.25495577  0.58333333  1.0
  P  P6451  1  0.68797251  0.37995577  0.58333333  1.0
  P  P6452  1  0.68797251  0.50495577  0.58333333  1.0
  P  P6453  1  0.68797251  0.62995577  0.58333333  1.0
  P  P6454  1  0.68797251  0.75495577  0.58333333  1.0
  P  P6455  1  0.68797251  0.87995577  0.58333333  1.0
  P  P6456  1  0.78797251  0.00495577  0.58333333  1.0
  P  P6457  1  0.78797251  0.12995577  0.58333333  1.0
  P  P6458  1  0.78797251  0.25495577  0.58333333  1.0
  P  P6459  1  0.78797251  0.37995577  0.58333333  1.0
  P  P6460  1  0.78797251  0.50495577  0.58333333  1.0
  P  P6461  1  0.78797251  0.62995577  0.58333333  1.0
  P  P6462  1  0.78797251  0.75495577  0.58333333  1.0
  P  P6463  1  0.78797251  0.87995577  0.58333333  1.0
  P  P6464  1  0.88797251  0.00495577  0.58333333  1.0
  P  P6465  1  0.88797251  0.12995577  0.58333333  1.0
  P  P6466  1  0.88797251  0.25495577  0.58333333  1.0
  P  P6467  1  0.88797251  0.37995577  0.58333333  1.0
  P  P6468  1  0.88797251  0.50495577  0.58333333  1.0
  P  P6469  1  0.88797251  0.62995577  0.58333333  1.0
  P  P6470  1  0.88797251  0.75495577  0.58333333  1.0
  P  P6471  1  0.88797251  0.87995577  0.58333333  1.0
  P  P6472  1  0.98797251  0.00495577  0.58333333  1.0
  P  P6473  1  0.98797251  0.12995577  0.58333333  1.0
  P  P6474  1  0.98797251  0.25495577  0.58333333  1.0
  P  P6475  1  0.98797251  0.37995577  0.58333333  1.0
  P  P6476  1  0.98797251  0.50495577  0.58333333  1.0
  P  P6477  1  0.98797251  0.62995577  0.58333333  1.0
  P  P6478  1  0.98797251  0.75495577  0.58333333  1.0
  P  P6479  1  0.98797251  0.87995577  0.58333333  1.0
  P  P6480  1  0.01202749  0.12004423  0.55000000  1.0
  P  P6481  1  0.01202749  0.24504423  0.55000000  1.0
  P  P6482  1  0.01202749  0.37004423  0.55000000  1.0
  P  P6483  1  0.01202749  0.49504423  0.55000000  1.0
  P  P6484  1  0.01202749  0.62004423  0.55000000  1.0
  P  P6485  1  0.01202749  0.74504423  0.55000000  1.0
  P  P6486  1  0.01202749  0.87004423  0.55000000  1.0
  P  P6487  1  0.01202749  0.99504423  0.55000000  1.0
  P  P6488  1  0.11202749  0.12004423  0.55000000  1.0
  P  P6489  1  0.11202749  0.24504423  0.55000000  1.0
  P  P6490  1  0.11202749  0.37004423  0.55000000  1.0
  P  P6491  1  0.11202749  0.49504423  0.55000000  1.0
  P  P6492  1  0.11202749  0.62004423  0.55000000  1.0
  P  P6493  1  0.11202749  0.74504423  0.55000000  1.0
  P  P6494  1  0.11202749  0.87004423  0.55000000  1.0
  P  P6495  1  0.11202749  0.99504423  0.55000000  1.0
  P  P6496  1  0.21202749  0.12004423  0.55000000  1.0
  P  P6497  1  0.21202749  0.24504423  0.55000000  1.0
  P  P6498  1  0.21202749  0.37004423  0.55000000  1.0
  P  P6499  1  0.21202749  0.49504423  0.55000000  1.0
  P  P6500  1  0.21202749  0.62004423  0.55000000  1.0
  P  P6501  1  0.21202749  0.74504423  0.55000000  1.0
  P  P6502  1  0.21202749  0.87004423  0.55000000  1.0
  P  P6503  1  0.21202749  0.99504423  0.55000000  1.0
  P  P6504  1  0.31202749  0.12004423  0.55000000  1.0
  P  P6505  1  0.31202749  0.24504423  0.55000000  1.0
  P  P6506  1  0.31202749  0.37004423  0.55000000  1.0
  P  P6507  1  0.31202749  0.49504423  0.55000000  1.0
  P  P6508  1  0.31202749  0.62004423  0.55000000  1.0
  P  P6509  1  0.31202749  0.74504423  0.55000000  1.0
  P  P6510  1  0.31202749  0.87004423  0.55000000  1.0
  P  P6511  1  0.31202749  0.99504423  0.55000000  1.0
  P  P6512  1  0.41202749  0.12004423  0.55000000  1.0
  P  P6513  1  0.41202749  0.24504423  0.55000000  1.0
  P  P6514  1  0.41202749  0.37004423  0.55000000  1.0
  P  P6515  1  0.41202749  0.49504423  0.55000000  1.0
  P  P6516  1  0.41202749  0.62004423  0.55000000  1.0
  P  P6517  1  0.41202749  0.74504423  0.55000000  1.0
  P  P6518  1  0.41202749  0.87004423  0.55000000  1.0
  P  P6519  1  0.41202749  0.99504423  0.55000000  1.0
  P  P6520  1  0.51202749  0.12004423  0.55000000  1.0
  P  P6521  1  0.51202749  0.24504423  0.55000000  1.0
  P  P6522  1  0.51202749  0.37004423  0.55000000  1.0
  P  P6523  1  0.51202749  0.49504423  0.55000000  1.0
  P  P6524  1  0.51202749  0.62004423  0.55000000  1.0
  P  P6525  1  0.51202749  0.74504423  0.55000000  1.0
  P  P6526  1  0.51202749  0.87004423  0.55000000  1.0
  P  P6527  1  0.51202749  0.99504423  0.55000000  1.0
  P  P6528  1  0.61202749  0.12004423  0.55000000  1.0
  P  P6529  1  0.61202749  0.24504423  0.55000000  1.0
  P  P6530  1  0.61202749  0.37004423  0.55000000  1.0
  P  P6531  1  0.61202749  0.49504423  0.55000000  1.0
  P  P6532  1  0.61202749  0.62004423  0.55000000  1.0
  P  P6533  1  0.61202749  0.74504423  0.55000000  1.0
  P  P6534  1  0.61202749  0.87004423  0.55000000  1.0
  P  P6535  1  0.61202749  0.99504423  0.55000000  1.0
  P  P6536  1  0.71202749  0.12004423  0.55000000  1.0
  P  P6537  1  0.71202749  0.24504423  0.55000000  1.0
  P  P6538  1  0.71202749  0.37004423  0.55000000  1.0
  P  P6539  1  0.71202749  0.49504423  0.55000000  1.0
  P  P6540  1  0.71202749  0.62004423  0.55000000  1.0
  P  P6541  1  0.71202749  0.74504423  0.55000000  1.0
  P  P6542  1  0.71202749  0.87004423  0.55000000  1.0
  P  P6543  1  0.71202749  0.99504423  0.55000000  1.0
  P  P6544  1  0.81202749  0.12004423  0.55000000  1.0
  P  P6545  1  0.81202749  0.24504423  0.55000000  1.0
  P  P6546  1  0.81202749  0.37004423  0.55000000  1.0
  P  P6547  1  0.81202749  0.49504423  0.55000000  1.0
  P  P6548  1  0.81202749  0.62004423  0.55000000  1.0
  P  P6549  1  0.81202749  0.74504423  0.55000000  1.0
  P  P6550  1  0.81202749  0.87004423  0.55000000  1.0
  P  P6551  1  0.81202749  0.99504423  0.55000000  1.0
  P  P6552  1  0.91202749  0.12004423  0.55000000  1.0
  P  P6553  1  0.91202749  0.24504423  0.55000000  1.0
  P  P6554  1  0.91202749  0.37004423  0.55000000  1.0
  P  P6555  1  0.91202749  0.49504423  0.55000000  1.0
  P  P6556  1  0.91202749  0.62004423  0.55000000  1.0
  P  P6557  1  0.91202749  0.74504423  0.55000000  1.0
  P  P6558  1  0.91202749  0.87004423  0.55000000  1.0
  P  P6559  1  0.91202749  0.99504423  0.55000000  1.0
  P  P6560  1  0.03797251  0.05754423  0.58333333  1.0
  P  P6561  1  0.03797251  0.18254423  0.58333333  1.0
  P  P6562  1  0.03797251  0.30754423  0.58333333  1.0
  P  P6563  1  0.03797251  0.43254423  0.58333333  1.0
  P  P6564  1  0.03797251  0.55754423  0.58333333  1.0
  P  P6565  1  0.03797251  0.68254423  0.58333333  1.0
  P  P6566  1  0.03797251  0.80754423  0.58333333  1.0
  P  P6567  1  0.03797251  0.93254423  0.58333333  1.0
  P  P6568  1  0.13797251  0.05754423  0.58333333  1.0
  P  P6569  1  0.13797251  0.18254423  0.58333333  1.0
  P  P6570  1  0.13797251  0.30754423  0.58333333  1.0
  P  P6571  1  0.13797251  0.43254423  0.58333333  1.0
  P  P6572  1  0.13797251  0.55754423  0.58333333  1.0
  P  P6573  1  0.13797251  0.68254423  0.58333333  1.0
  P  P6574  1  0.13797251  0.80754423  0.58333333  1.0
  P  P6575  1  0.13797251  0.93254423  0.58333333  1.0
  P  P6576  1  0.23797251  0.05754423  0.58333333  1.0
  P  P6577  1  0.23797251  0.18254423  0.58333333  1.0
  P  P6578  1  0.23797251  0.30754423  0.58333333  1.0
  P  P6579  1  0.23797251  0.43254423  0.58333333  1.0
  P  P6580  1  0.23797251  0.55754423  0.58333333  1.0
  P  P6581  1  0.23797251  0.68254423  0.58333333  1.0
  P  P6582  1  0.23797251  0.80754423  0.58333333  1.0
  P  P6583  1  0.23797251  0.93254423  0.58333333  1.0
  P  P6584  1  0.33797251  0.05754423  0.58333333  1.0
  P  P6585  1  0.33797251  0.18254423  0.58333333  1.0
  P  P6586  1  0.33797251  0.30754423  0.58333333  1.0
  P  P6587  1  0.33797251  0.43254423  0.58333333  1.0
  P  P6588  1  0.33797251  0.55754423  0.58333333  1.0
  P  P6589  1  0.33797251  0.68254423  0.58333333  1.0
  P  P6590  1  0.33797251  0.80754423  0.58333333  1.0
  P  P6591  1  0.33797251  0.93254423  0.58333333  1.0
  P  P6592  1  0.43797251  0.05754423  0.58333333  1.0
  P  P6593  1  0.43797251  0.18254423  0.58333333  1.0
  P  P6594  1  0.43797251  0.30754423  0.58333333  1.0
  P  P6595  1  0.43797251  0.43254423  0.58333333  1.0
  P  P6596  1  0.43797251  0.55754423  0.58333333  1.0
  P  P6597  1  0.43797251  0.68254423  0.58333333  1.0
  P  P6598  1  0.43797251  0.80754423  0.58333333  1.0
  P  P6599  1  0.43797251  0.93254423  0.58333333  1.0
  P  P6600  1  0.53797251  0.05754423  0.58333333  1.0
  P  P6601  1  0.53797251  0.18254423  0.58333333  1.0
  P  P6602  1  0.53797251  0.30754423  0.58333333  1.0
  P  P6603  1  0.53797251  0.43254423  0.58333333  1.0
  P  P6604  1  0.53797251  0.55754423  0.58333333  1.0
  P  P6605  1  0.53797251  0.68254423  0.58333333  1.0
  P  P6606  1  0.53797251  0.80754423  0.58333333  1.0
  P  P6607  1  0.53797251  0.93254423  0.58333333  1.0
  P  P6608  1  0.63797251  0.05754423  0.58333333  1.0
  P  P6609  1  0.63797251  0.18254423  0.58333333  1.0
  P  P6610  1  0.63797251  0.30754423  0.58333333  1.0
  P  P6611  1  0.63797251  0.43254423  0.58333333  1.0
  P  P6612  1  0.63797251  0.55754423  0.58333333  1.0
  P  P6613  1  0.63797251  0.68254423  0.58333333  1.0
  P  P6614  1  0.63797251  0.80754423  0.58333333  1.0
  P  P6615  1  0.63797251  0.93254423  0.58333333  1.0
  P  P6616  1  0.73797251  0.05754423  0.58333333  1.0
  P  P6617  1  0.73797251  0.18254423  0.58333333  1.0
  P  P6618  1  0.73797251  0.30754423  0.58333333  1.0
  P  P6619  1  0.73797251  0.43254423  0.58333333  1.0
  P  P6620  1  0.73797251  0.55754423  0.58333333  1.0
  P  P6621  1  0.73797251  0.68254423  0.58333333  1.0
  P  P6622  1  0.73797251  0.80754423  0.58333333  1.0
  P  P6623  1  0.73797251  0.93254423  0.58333333  1.0
  P  P6624  1  0.83797251  0.05754423  0.58333333  1.0
  P  P6625  1  0.83797251  0.18254423  0.58333333  1.0
  P  P6626  1  0.83797251  0.30754423  0.58333333  1.0
  P  P6627  1  0.83797251  0.43254423  0.58333333  1.0
  P  P6628  1  0.83797251  0.55754423  0.58333333  1.0
  P  P6629  1  0.83797251  0.68254423  0.58333333  1.0
  P  P6630  1  0.83797251  0.80754423  0.58333333  1.0
  P  P6631  1  0.83797251  0.93254423  0.58333333  1.0
  P  P6632  1  0.93797251  0.05754423  0.58333333  1.0
  P  P6633  1  0.93797251  0.18254423  0.58333333  1.0
  P  P6634  1  0.93797251  0.30754423  0.58333333  1.0
  P  P6635  1  0.93797251  0.43254423  0.58333333  1.0
  P  P6636  1  0.93797251  0.55754423  0.58333333  1.0
  P  P6637  1  0.93797251  0.68254423  0.58333333  1.0
  P  P6638  1  0.93797251  0.80754423  0.58333333  1.0
  P  P6639  1  0.93797251  0.93254423  0.58333333  1.0
  P  P6640  1  0.06202749  0.06745577  0.55000000  1.0
  P  P6641  1  0.06202749  0.19245577  0.55000000  1.0
  P  P6642  1  0.06202749  0.31745577  0.55000000  1.0
  P  P6643  1  0.06202749  0.44245577  0.55000000  1.0
  P  P6644  1  0.06202749  0.56745577  0.55000000  1.0
  P  P6645  1  0.06202749  0.69245577  0.55000000  1.0
  P  P6646  1  0.06202749  0.81745577  0.55000000  1.0
  P  P6647  1  0.06202749  0.94245577  0.55000000  1.0
  P  P6648  1  0.16202749  0.06745577  0.55000000  1.0
  P  P6649  1  0.16202749  0.19245577  0.55000000  1.0
  P  P6650  1  0.16202749  0.31745577  0.55000000  1.0
  P  P6651  1  0.16202749  0.44245577  0.55000000  1.0
  P  P6652  1  0.16202749  0.56745577  0.55000000  1.0
  P  P6653  1  0.16202749  0.69245577  0.55000000  1.0
  P  P6654  1  0.16202749  0.81745577  0.55000000  1.0
  P  P6655  1  0.16202749  0.94245577  0.55000000  1.0
  P  P6656  1  0.26202749  0.06745577  0.55000000  1.0
  P  P6657  1  0.26202749  0.19245577  0.55000000  1.0
  P  P6658  1  0.26202749  0.31745577  0.55000000  1.0
  P  P6659  1  0.26202749  0.44245577  0.55000000  1.0
  P  P6660  1  0.26202749  0.56745577  0.55000000  1.0
  P  P6661  1  0.26202749  0.69245577  0.55000000  1.0
  P  P6662  1  0.26202749  0.81745577  0.55000000  1.0
  P  P6663  1  0.26202749  0.94245577  0.55000000  1.0
  P  P6664  1  0.36202749  0.06745577  0.55000000  1.0
  P  P6665  1  0.36202749  0.19245577  0.55000000  1.0
  P  P6666  1  0.36202749  0.31745577  0.55000000  1.0
  P  P6667  1  0.36202749  0.44245577  0.55000000  1.0
  P  P6668  1  0.36202749  0.56745577  0.55000000  1.0
  P  P6669  1  0.36202749  0.69245577  0.55000000  1.0
  P  P6670  1  0.36202749  0.81745577  0.55000000  1.0
  P  P6671  1  0.36202749  0.94245577  0.55000000  1.0
  P  P6672  1  0.46202749  0.06745577  0.55000000  1.0
  P  P6673  1  0.46202749  0.19245577  0.55000000  1.0
  P  P6674  1  0.46202749  0.31745577  0.55000000  1.0
  P  P6675  1  0.46202749  0.44245577  0.55000000  1.0
  P  P6676  1  0.46202749  0.56745577  0.55000000  1.0
  P  P6677  1  0.46202749  0.69245577  0.55000000  1.0
  P  P6678  1  0.46202749  0.81745577  0.55000000  1.0
  P  P6679  1  0.46202749  0.94245577  0.55000000  1.0
  P  P6680  1  0.56202749  0.06745577  0.55000000  1.0
  P  P6681  1  0.56202749  0.19245577  0.55000000  1.0
  P  P6682  1  0.56202749  0.31745577  0.55000000  1.0
  P  P6683  1  0.56202749  0.44245577  0.55000000  1.0
  P  P6684  1  0.56202749  0.56745577  0.55000000  1.0
  P  P6685  1  0.56202749  0.69245577  0.55000000  1.0
  P  P6686  1  0.56202749  0.81745577  0.55000000  1.0
  P  P6687  1  0.56202749  0.94245577  0.55000000  1.0
  P  P6688  1  0.66202749  0.06745577  0.55000000  1.0
  P  P6689  1  0.66202749  0.19245577  0.55000000  1.0
  P  P6690  1  0.66202749  0.31745577  0.55000000  1.0
  P  P6691  1  0.66202749  0.44245577  0.55000000  1.0
  P  P6692  1  0.66202749  0.56745577  0.55000000  1.0
  P  P6693  1  0.66202749  0.69245577  0.55000000  1.0
  P  P6694  1  0.66202749  0.81745577  0.55000000  1.0
  P  P6695  1  0.66202749  0.94245577  0.55000000  1.0
  P  P6696  1  0.76202749  0.06745577  0.55000000  1.0
  P  P6697  1  0.76202749  0.19245577  0.55000000  1.0
  P  P6698  1  0.76202749  0.31745577  0.55000000  1.0
  P  P6699  1  0.76202749  0.44245577  0.55000000  1.0
  P  P6700  1  0.76202749  0.56745577  0.55000000  1.0
  P  P6701  1  0.76202749  0.69245577  0.55000000  1.0
  P  P6702  1  0.76202749  0.81745577  0.55000000  1.0
  P  P6703  1  0.76202749  0.94245577  0.55000000  1.0
  P  P6704  1  0.86202749  0.06745577  0.55000000  1.0
  P  P6705  1  0.86202749  0.19245577  0.55000000  1.0
  P  P6706  1  0.86202749  0.31745577  0.55000000  1.0
  P  P6707  1  0.86202749  0.44245577  0.55000000  1.0
  P  P6708  1  0.86202749  0.56745577  0.55000000  1.0
  P  P6709  1  0.86202749  0.69245577  0.55000000  1.0
  P  P6710  1  0.86202749  0.81745577  0.55000000  1.0
  P  P6711  1  0.86202749  0.94245577  0.55000000  1.0
  P  P6712  1  0.96202749  0.06745577  0.55000000  1.0
  P  P6713  1  0.96202749  0.19245577  0.55000000  1.0
  P  P6714  1  0.96202749  0.31745577  0.55000000  1.0
  P  P6715  1  0.96202749  0.44245577  0.55000000  1.0
  P  P6716  1  0.96202749  0.56745577  0.55000000  1.0
  P  P6717  1  0.96202749  0.69245577  0.55000000  1.0
  P  P6718  1  0.96202749  0.81745577  0.55000000  1.0
  P  P6719  1  0.96202749  0.94245577  0.55000000  1.0
  P  P6720  1  0.05878854  0.01712191  0.61666667  1.0
  P  P6721  1  0.05878854  0.14212191  0.61666667  1.0
  P  P6722  1  0.05878854  0.26712191  0.61666667  1.0
  P  P6723  1  0.05878854  0.39212191  0.61666667  1.0
  P  P6724  1  0.05878854  0.51712191  0.61666667  1.0
  P  P6725  1  0.05878854  0.64212191  0.61666667  1.0
  P  P6726  1  0.05878854  0.76712191  0.61666667  1.0
  P  P6727  1  0.05878854  0.89212191  0.61666667  1.0
  P  P6728  1  0.15878854  0.01712191  0.61666667  1.0
  P  P6729  1  0.15878854  0.14212191  0.61666667  1.0
  P  P6730  1  0.15878854  0.26712191  0.61666667  1.0
  P  P6731  1  0.15878854  0.39212191  0.61666667  1.0
  P  P6732  1  0.15878854  0.51712191  0.61666667  1.0
  P  P6733  1  0.15878854  0.64212191  0.61666667  1.0
  P  P6734  1  0.15878854  0.76712191  0.61666667  1.0
  P  P6735  1  0.15878854  0.89212191  0.61666667  1.0
  P  P6736  1  0.25878854  0.01712191  0.61666667  1.0
  P  P6737  1  0.25878854  0.14212191  0.61666667  1.0
  P  P6738  1  0.25878854  0.26712191  0.61666667  1.0
  P  P6739  1  0.25878854  0.39212191  0.61666667  1.0
  P  P6740  1  0.25878854  0.51712191  0.61666667  1.0
  P  P6741  1  0.25878854  0.64212191  0.61666667  1.0
  P  P6742  1  0.25878854  0.76712191  0.61666667  1.0
  P  P6743  1  0.25878854  0.89212191  0.61666667  1.0
  P  P6744  1  0.35878854  0.01712191  0.61666667  1.0
  P  P6745  1  0.35878854  0.14212191  0.61666667  1.0
  P  P6746  1  0.35878854  0.26712191  0.61666667  1.0
  P  P6747  1  0.35878854  0.39212191  0.61666667  1.0
  P  P6748  1  0.35878854  0.51712191  0.61666667  1.0
  P  P6749  1  0.35878854  0.64212191  0.61666667  1.0
  P  P6750  1  0.35878854  0.76712191  0.61666667  1.0
  P  P6751  1  0.35878854  0.89212191  0.61666667  1.0
  P  P6752  1  0.45878854  0.01712191  0.61666667  1.0
  P  P6753  1  0.45878854  0.14212191  0.61666667  1.0
  P  P6754  1  0.45878854  0.26712191  0.61666667  1.0
  P  P6755  1  0.45878854  0.39212191  0.61666667  1.0
  P  P6756  1  0.45878854  0.51712191  0.61666667  1.0
  P  P6757  1  0.45878854  0.64212191  0.61666667  1.0
  P  P6758  1  0.45878854  0.76712191  0.61666667  1.0
  P  P6759  1  0.45878854  0.89212191  0.61666667  1.0
  P  P6760  1  0.55878854  0.01712191  0.61666667  1.0
  P  P6761  1  0.55878854  0.14212191  0.61666667  1.0
  P  P6762  1  0.55878854  0.26712191  0.61666667  1.0
  P  P6763  1  0.55878854  0.39212191  0.61666667  1.0
  P  P6764  1  0.55878854  0.51712191  0.61666667  1.0
  P  P6765  1  0.55878854  0.64212191  0.61666667  1.0
  P  P6766  1  0.55878854  0.76712191  0.61666667  1.0
  P  P6767  1  0.55878854  0.89212191  0.61666667  1.0
  P  P6768  1  0.65878854  0.01712191  0.61666667  1.0
  P  P6769  1  0.65878854  0.14212191  0.61666667  1.0
  P  P6770  1  0.65878854  0.26712191  0.61666667  1.0
  P  P6771  1  0.65878854  0.39212191  0.61666667  1.0
  P  P6772  1  0.65878854  0.51712191  0.61666667  1.0
  P  P6773  1  0.65878854  0.64212191  0.61666667  1.0
  P  P6774  1  0.65878854  0.76712191  0.61666667  1.0
  P  P6775  1  0.65878854  0.89212191  0.61666667  1.0
  P  P6776  1  0.75878854  0.01712191  0.61666667  1.0
  P  P6777  1  0.75878854  0.14212191  0.61666667  1.0
  P  P6778  1  0.75878854  0.26712191  0.61666667  1.0
  P  P6779  1  0.75878854  0.39212191  0.61666667  1.0
  P  P6780  1  0.75878854  0.51712191  0.61666667  1.0
  P  P6781  1  0.75878854  0.64212191  0.61666667  1.0
  P  P6782  1  0.75878854  0.76712191  0.61666667  1.0
  P  P6783  1  0.75878854  0.89212191  0.61666667  1.0
  P  P6784  1  0.85878854  0.01712191  0.61666667  1.0
  P  P6785  1  0.85878854  0.14212191  0.61666667  1.0
  P  P6786  1  0.85878854  0.26712191  0.61666667  1.0
  P  P6787  1  0.85878854  0.39212191  0.61666667  1.0
  P  P6788  1  0.85878854  0.51712191  0.61666667  1.0
  P  P6789  1  0.85878854  0.64212191  0.61666667  1.0
  P  P6790  1  0.85878854  0.76712191  0.61666667  1.0
  P  P6791  1  0.85878854  0.89212191  0.61666667  1.0
  P  P6792  1  0.95878854  0.01712191  0.61666667  1.0
  P  P6793  1  0.95878854  0.14212191  0.61666667  1.0
  P  P6794  1  0.95878854  0.26712191  0.61666667  1.0
  P  P6795  1  0.95878854  0.39212191  0.61666667  1.0
  P  P6796  1  0.95878854  0.51712191  0.61666667  1.0
  P  P6797  1  0.95878854  0.64212191  0.61666667  1.0
  P  P6798  1  0.95878854  0.76712191  0.61666667  1.0
  P  P6799  1  0.95878854  0.89212191  0.61666667  1.0
  P  P6800  1  0.04121146  0.10787809  0.65000000  1.0
  P  P6801  1  0.04121146  0.23287809  0.65000000  1.0
  P  P6802  1  0.04121146  0.35787809  0.65000000  1.0
  P  P6803  1  0.04121146  0.48287809  0.65000000  1.0
  P  P6804  1  0.04121146  0.60787809  0.65000000  1.0
  P  P6805  1  0.04121146  0.73287809  0.65000000  1.0
  P  P6806  1  0.04121146  0.85787809  0.65000000  1.0
  P  P6807  1  0.04121146  0.98287809  0.65000000  1.0
  P  P6808  1  0.14121146  0.10787809  0.65000000  1.0
  P  P6809  1  0.14121146  0.23287809  0.65000000  1.0
  P  P6810  1  0.14121146  0.35787809  0.65000000  1.0
  P  P6811  1  0.14121146  0.48287809  0.65000000  1.0
  P  P6812  1  0.14121146  0.60787809  0.65000000  1.0
  P  P6813  1  0.14121146  0.73287809  0.65000000  1.0
  P  P6814  1  0.14121146  0.85787809  0.65000000  1.0
  P  P6815  1  0.14121146  0.98287809  0.65000000  1.0
  P  P6816  1  0.24121146  0.10787809  0.65000000  1.0
  P  P6817  1  0.24121146  0.23287809  0.65000000  1.0
  P  P6818  1  0.24121146  0.35787809  0.65000000  1.0
  P  P6819  1  0.24121146  0.48287809  0.65000000  1.0
  P  P6820  1  0.24121146  0.60787809  0.65000000  1.0
  P  P6821  1  0.24121146  0.73287809  0.65000000  1.0
  P  P6822  1  0.24121146  0.85787809  0.65000000  1.0
  P  P6823  1  0.24121146  0.98287809  0.65000000  1.0
  P  P6824  1  0.34121146  0.10787809  0.65000000  1.0
  P  P6825  1  0.34121146  0.23287809  0.65000000  1.0
  P  P6826  1  0.34121146  0.35787809  0.65000000  1.0
  P  P6827  1  0.34121146  0.48287809  0.65000000  1.0
  P  P6828  1  0.34121146  0.60787809  0.65000000  1.0
  P  P6829  1  0.34121146  0.73287809  0.65000000  1.0
  P  P6830  1  0.34121146  0.85787809  0.65000000  1.0
  P  P6831  1  0.34121146  0.98287809  0.65000000  1.0
  P  P6832  1  0.44121146  0.10787809  0.65000000  1.0
  P  P6833  1  0.44121146  0.23287809  0.65000000  1.0
  P  P6834  1  0.44121146  0.35787809  0.65000000  1.0
  P  P6835  1  0.44121146  0.48287809  0.65000000  1.0
  P  P6836  1  0.44121146  0.60787809  0.65000000  1.0
  P  P6837  1  0.44121146  0.73287809  0.65000000  1.0
  P  P6838  1  0.44121146  0.85787809  0.65000000  1.0
  P  P6839  1  0.44121146  0.98287809  0.65000000  1.0
  P  P6840  1  0.54121146  0.10787809  0.65000000  1.0
  P  P6841  1  0.54121146  0.23287809  0.65000000  1.0
  P  P6842  1  0.54121146  0.35787809  0.65000000  1.0
  P  P6843  1  0.54121146  0.48287809  0.65000000  1.0
  P  P6844  1  0.54121146  0.60787809  0.65000000  1.0
  P  P6845  1  0.54121146  0.73287809  0.65000000  1.0
  P  P6846  1  0.54121146  0.85787809  0.65000000  1.0
  P  P6847  1  0.54121146  0.98287809  0.65000000  1.0
  P  P6848  1  0.64121146  0.10787809  0.65000000  1.0
  P  P6849  1  0.64121146  0.23287809  0.65000000  1.0
  P  P6850  1  0.64121146  0.35787809  0.65000000  1.0
  P  P6851  1  0.64121146  0.48287809  0.65000000  1.0
  P  P6852  1  0.64121146  0.60787809  0.65000000  1.0
  P  P6853  1  0.64121146  0.73287809  0.65000000  1.0
  P  P6854  1  0.64121146  0.85787809  0.65000000  1.0
  P  P6855  1  0.64121146  0.98287809  0.65000000  1.0
  P  P6856  1  0.74121146  0.10787809  0.65000000  1.0
  P  P6857  1  0.74121146  0.23287809  0.65000000  1.0
  P  P6858  1  0.74121146  0.35787809  0.65000000  1.0
  P  P6859  1  0.74121146  0.48287809  0.65000000  1.0
  P  P6860  1  0.74121146  0.60787809  0.65000000  1.0
  P  P6861  1  0.74121146  0.73287809  0.65000000  1.0
  P  P6862  1  0.74121146  0.85787809  0.65000000  1.0
  P  P6863  1  0.74121146  0.98287809  0.65000000  1.0
  P  P6864  1  0.84121146  0.10787809  0.65000000  1.0
  P  P6865  1  0.84121146  0.23287809  0.65000000  1.0
  P  P6866  1  0.84121146  0.35787809  0.65000000  1.0
  P  P6867  1  0.84121146  0.48287809  0.65000000  1.0
  P  P6868  1  0.84121146  0.60787809  0.65000000  1.0
  P  P6869  1  0.84121146  0.73287809  0.65000000  1.0
  P  P6870  1  0.84121146  0.85787809  0.65000000  1.0
  P  P6871  1  0.84121146  0.98287809  0.65000000  1.0
  P  P6872  1  0.94121146  0.10787809  0.65000000  1.0
  P  P6873  1  0.94121146  0.23287809  0.65000000  1.0
  P  P6874  1  0.94121146  0.35787809  0.65000000  1.0
  P  P6875  1  0.94121146  0.48287809  0.65000000  1.0
  P  P6876  1  0.94121146  0.60787809  0.65000000  1.0
  P  P6877  1  0.94121146  0.73287809  0.65000000  1.0
  P  P6878  1  0.94121146  0.85787809  0.65000000  1.0
  P  P6879  1  0.94121146  0.98287809  0.65000000  1.0
  P  P6880  1  0.00878854  0.04537809  0.61666667  1.0
  P  P6881  1  0.00878854  0.17037809  0.61666667  1.0
  P  P6882  1  0.00878854  0.29537809  0.61666667  1.0
  P  P6883  1  0.00878854  0.42037809  0.61666667  1.0
  P  P6884  1  0.00878854  0.54537809  0.61666667  1.0
  P  P6885  1  0.00878854  0.67037809  0.61666667  1.0
  P  P6886  1  0.00878854  0.79537809  0.61666667  1.0
  P  P6887  1  0.00878854  0.92037809  0.61666667  1.0
  P  P6888  1  0.10878854  0.04537809  0.61666667  1.0
  P  P6889  1  0.10878854  0.17037809  0.61666667  1.0
  P  P6890  1  0.10878854  0.29537809  0.61666667  1.0
  P  P6891  1  0.10878854  0.42037809  0.61666667  1.0
  P  P6892  1  0.10878854  0.54537809  0.61666667  1.0
  P  P6893  1  0.10878854  0.67037809  0.61666667  1.0
  P  P6894  1  0.10878854  0.79537809  0.61666667  1.0
  P  P6895  1  0.10878854  0.92037809  0.61666667  1.0
  P  P6896  1  0.20878854  0.04537809  0.61666667  1.0
  P  P6897  1  0.20878854  0.17037809  0.61666667  1.0
  P  P6898  1  0.20878854  0.29537809  0.61666667  1.0
  P  P6899  1  0.20878854  0.42037809  0.61666667  1.0
  P  P6900  1  0.20878854  0.54537809  0.61666667  1.0
  P  P6901  1  0.20878854  0.67037809  0.61666667  1.0
  P  P6902  1  0.20878854  0.79537809  0.61666667  1.0
  P  P6903  1  0.20878854  0.92037809  0.61666667  1.0
  P  P6904  1  0.30878854  0.04537809  0.61666667  1.0
  P  P6905  1  0.30878854  0.17037809  0.61666667  1.0
  P  P6906  1  0.30878854  0.29537809  0.61666667  1.0
  P  P6907  1  0.30878854  0.42037809  0.61666667  1.0
  P  P6908  1  0.30878854  0.54537809  0.61666667  1.0
  P  P6909  1  0.30878854  0.67037809  0.61666667  1.0
  P  P6910  1  0.30878854  0.79537809  0.61666667  1.0
  P  P6911  1  0.30878854  0.92037809  0.61666667  1.0
  P  P6912  1  0.40878854  0.04537809  0.61666667  1.0
  P  P6913  1  0.40878854  0.17037809  0.61666667  1.0
  P  P6914  1  0.40878854  0.29537809  0.61666667  1.0
  P  P6915  1  0.40878854  0.42037809  0.61666667  1.0
  P  P6916  1  0.40878854  0.54537809  0.61666667  1.0
  P  P6917  1  0.40878854  0.67037809  0.61666667  1.0
  P  P6918  1  0.40878854  0.79537809  0.61666667  1.0
  P  P6919  1  0.40878854  0.92037809  0.61666667  1.0
  P  P6920  1  0.50878854  0.04537809  0.61666667  1.0
  P  P6921  1  0.50878854  0.17037809  0.61666667  1.0
  P  P6922  1  0.50878854  0.29537809  0.61666667  1.0
  P  P6923  1  0.50878854  0.42037809  0.61666667  1.0
  P  P6924  1  0.50878854  0.54537809  0.61666667  1.0
  P  P6925  1  0.50878854  0.67037809  0.61666667  1.0
  P  P6926  1  0.50878854  0.79537809  0.61666667  1.0
  P  P6927  1  0.50878854  0.92037809  0.61666667  1.0
  P  P6928  1  0.60878854  0.04537809  0.61666667  1.0
  P  P6929  1  0.60878854  0.17037809  0.61666667  1.0
  P  P6930  1  0.60878854  0.29537809  0.61666667  1.0
  P  P6931  1  0.60878854  0.42037809  0.61666667  1.0
  P  P6932  1  0.60878854  0.54537809  0.61666667  1.0
  P  P6933  1  0.60878854  0.67037809  0.61666667  1.0
  P  P6934  1  0.60878854  0.79537809  0.61666667  1.0
  P  P6935  1  0.60878854  0.92037809  0.61666667  1.0
  P  P6936  1  0.70878854  0.04537809  0.61666667  1.0
  P  P6937  1  0.70878854  0.17037809  0.61666667  1.0
  P  P6938  1  0.70878854  0.29537809  0.61666667  1.0
  P  P6939  1  0.70878854  0.42037809  0.61666667  1.0
  P  P6940  1  0.70878854  0.54537809  0.61666667  1.0
  P  P6941  1  0.70878854  0.67037809  0.61666667  1.0
  P  P6942  1  0.70878854  0.79537809  0.61666667  1.0
  P  P6943  1  0.70878854  0.92037809  0.61666667  1.0
  P  P6944  1  0.80878854  0.04537809  0.61666667  1.0
  P  P6945  1  0.80878854  0.17037809  0.61666667  1.0
  P  P6946  1  0.80878854  0.29537809  0.61666667  1.0
  P  P6947  1  0.80878854  0.42037809  0.61666667  1.0
  P  P6948  1  0.80878854  0.54537809  0.61666667  1.0
  P  P6949  1  0.80878854  0.67037809  0.61666667  1.0
  P  P6950  1  0.80878854  0.79537809  0.61666667  1.0
  P  P6951  1  0.80878854  0.92037809  0.61666667  1.0
  P  P6952  1  0.90878854  0.04537809  0.61666667  1.0
  P  P6953  1  0.90878854  0.17037809  0.61666667  1.0
  P  P6954  1  0.90878854  0.29537809  0.61666667  1.0
  P  P6955  1  0.90878854  0.42037809  0.61666667  1.0
  P  P6956  1  0.90878854  0.54537809  0.61666667  1.0
  P  P6957  1  0.90878854  0.67037809  0.61666667  1.0
  P  P6958  1  0.90878854  0.79537809  0.61666667  1.0
  P  P6959  1  0.90878854  0.92037809  0.61666667  1.0
  P  P6960  1  0.09121146  0.07962191  0.65000000  1.0
  P  P6961  1  0.09121146  0.20462191  0.65000000  1.0
  P  P6962  1  0.09121146  0.32962191  0.65000000  1.0
  P  P6963  1  0.09121146  0.45462191  0.65000000  1.0
  P  P6964  1  0.09121146  0.57962191  0.65000000  1.0
  P  P6965  1  0.09121146  0.70462191  0.65000000  1.0
  P  P6966  1  0.09121146  0.82962191  0.65000000  1.0
  P  P6967  1  0.09121146  0.95462191  0.65000000  1.0
  P  P6968  1  0.19121146  0.07962191  0.65000000  1.0
  P  P6969  1  0.19121146  0.20462191  0.65000000  1.0
  P  P6970  1  0.19121146  0.32962191  0.65000000  1.0
  P  P6971  1  0.19121146  0.45462191  0.65000000  1.0
  P  P6972  1  0.19121146  0.57962191  0.65000000  1.0
  P  P6973  1  0.19121146  0.70462191  0.65000000  1.0
  P  P6974  1  0.19121146  0.82962191  0.65000000  1.0
  P  P6975  1  0.19121146  0.95462191  0.65000000  1.0
  P  P6976  1  0.29121146  0.07962191  0.65000000  1.0
  P  P6977  1  0.29121146  0.20462191  0.65000000  1.0
  P  P6978  1  0.29121146  0.32962191  0.65000000  1.0
  P  P6979  1  0.29121146  0.45462191  0.65000000  1.0
  P  P6980  1  0.29121146  0.57962191  0.65000000  1.0
  P  P6981  1  0.29121146  0.70462191  0.65000000  1.0
  P  P6982  1  0.29121146  0.82962191  0.65000000  1.0
  P  P6983  1  0.29121146  0.95462191  0.65000000  1.0
  P  P6984  1  0.39121146  0.07962191  0.65000000  1.0
  P  P6985  1  0.39121146  0.20462191  0.65000000  1.0
  P  P6986  1  0.39121146  0.32962191  0.65000000  1.0
  P  P6987  1  0.39121146  0.45462191  0.65000000  1.0
  P  P6988  1  0.39121146  0.57962191  0.65000000  1.0
  P  P6989  1  0.39121146  0.70462191  0.65000000  1.0
  P  P6990  1  0.39121146  0.82962191  0.65000000  1.0
  P  P6991  1  0.39121146  0.95462191  0.65000000  1.0
  P  P6992  1  0.49121146  0.07962191  0.65000000  1.0
  P  P6993  1  0.49121146  0.20462191  0.65000000  1.0
  P  P6994  1  0.49121146  0.32962191  0.65000000  1.0
  P  P6995  1  0.49121146  0.45462191  0.65000000  1.0
  P  P6996  1  0.49121146  0.57962191  0.65000000  1.0
  P  P6997  1  0.49121146  0.70462191  0.65000000  1.0
  P  P6998  1  0.49121146  0.82962191  0.65000000  1.0
  P  P6999  1  0.49121146  0.95462191  0.65000000  1.0
  P  P7000  1  0.59121146  0.07962191  0.65000000  1.0
  P  P7001  1  0.59121146  0.20462191  0.65000000  1.0
  P  P7002  1  0.59121146  0.32962191  0.65000000  1.0
  P  P7003  1  0.59121146  0.45462191  0.65000000  1.0
  P  P7004  1  0.59121146  0.57962191  0.65000000  1.0
  P  P7005  1  0.59121146  0.70462191  0.65000000  1.0
  P  P7006  1  0.59121146  0.82962191  0.65000000  1.0
  P  P7007  1  0.59121146  0.95462191  0.65000000  1.0
  P  P7008  1  0.69121146  0.07962191  0.65000000  1.0
  P  P7009  1  0.69121146  0.20462191  0.65000000  1.0
  P  P7010  1  0.69121146  0.32962191  0.65000000  1.0
  P  P7011  1  0.69121146  0.45462191  0.65000000  1.0
  P  P7012  1  0.69121146  0.57962191  0.65000000  1.0
  P  P7013  1  0.69121146  0.70462191  0.65000000  1.0
  P  P7014  1  0.69121146  0.82962191  0.65000000  1.0
  P  P7015  1  0.69121146  0.95462191  0.65000000  1.0
  P  P7016  1  0.79121146  0.07962191  0.65000000  1.0
  P  P7017  1  0.79121146  0.20462191  0.65000000  1.0
  P  P7018  1  0.79121146  0.32962191  0.65000000  1.0
  P  P7019  1  0.79121146  0.45462191  0.65000000  1.0
  P  P7020  1  0.79121146  0.57962191  0.65000000  1.0
  P  P7021  1  0.79121146  0.70462191  0.65000000  1.0
  P  P7022  1  0.79121146  0.82962191  0.65000000  1.0
  P  P7023  1  0.79121146  0.95462191  0.65000000  1.0
  P  P7024  1  0.89121146  0.07962191  0.65000000  1.0
  P  P7025  1  0.89121146  0.20462191  0.65000000  1.0
  P  P7026  1  0.89121146  0.32962191  0.65000000  1.0
  P  P7027  1  0.89121146  0.45462191  0.65000000  1.0
  P  P7028  1  0.89121146  0.57962191  0.65000000  1.0
  P  P7029  1  0.89121146  0.70462191  0.65000000  1.0
  P  P7030  1  0.89121146  0.82962191  0.65000000  1.0
  P  P7031  1  0.89121146  0.95462191  0.65000000  1.0
  P  P7032  1  0.99121146  0.07962191  0.65000000  1.0
  P  P7033  1  0.99121146  0.20462191  0.65000000  1.0
  P  P7034  1  0.99121146  0.32962191  0.65000000  1.0
  P  P7035  1  0.99121146  0.45462191  0.65000000  1.0
  P  P7036  1  0.99121146  0.57962191  0.65000000  1.0
  P  P7037  1  0.99121146  0.70462191  0.65000000  1.0
  P  P7038  1  0.99121146  0.82962191  0.65000000  1.0
  P  P7039  1  0.99121146  0.95462191  0.65000000  1.0
  P  P7040  1  0.08797251  0.00495577  0.65000000  1.0
  P  P7041  1  0.08797251  0.12995577  0.65000000  1.0
  P  P7042  1  0.08797251  0.25495577  0.65000000  1.0
  P  P7043  1  0.08797251  0.37995577  0.65000000  1.0
  P  P7044  1  0.08797251  0.50495577  0.65000000  1.0
  P  P7045  1  0.08797251  0.62995577  0.65000000  1.0
  P  P7046  1  0.08797251  0.75495577  0.65000000  1.0
  P  P7047  1  0.08797251  0.87995577  0.65000000  1.0
  P  P7048  1  0.18797251  0.00495577  0.65000000  1.0
  P  P7049  1  0.18797251  0.12995577  0.65000000  1.0
  P  P7050  1  0.18797251  0.25495577  0.65000000  1.0
  P  P7051  1  0.18797251  0.37995577  0.65000000  1.0
  P  P7052  1  0.18797251  0.50495577  0.65000000  1.0
  P  P7053  1  0.18797251  0.62995577  0.65000000  1.0
  P  P7054  1  0.18797251  0.75495577  0.65000000  1.0
  P  P7055  1  0.18797251  0.87995577  0.65000000  1.0
  P  P7056  1  0.28797251  0.00495577  0.65000000  1.0
  P  P7057  1  0.28797251  0.12995577  0.65000000  1.0
  P  P7058  1  0.28797251  0.25495577  0.65000000  1.0
  P  P7059  1  0.28797251  0.37995577  0.65000000  1.0
  P  P7060  1  0.28797251  0.50495577  0.65000000  1.0
  P  P7061  1  0.28797251  0.62995577  0.65000000  1.0
  P  P7062  1  0.28797251  0.75495577  0.65000000  1.0
  P  P7063  1  0.28797251  0.87995577  0.65000000  1.0
  P  P7064  1  0.38797251  0.00495577  0.65000000  1.0
  P  P7065  1  0.38797251  0.12995577  0.65000000  1.0
  P  P7066  1  0.38797251  0.25495577  0.65000000  1.0
  P  P7067  1  0.38797251  0.37995577  0.65000000  1.0
  P  P7068  1  0.38797251  0.50495577  0.65000000  1.0
  P  P7069  1  0.38797251  0.62995577  0.65000000  1.0
  P  P7070  1  0.38797251  0.75495577  0.65000000  1.0
  P  P7071  1  0.38797251  0.87995577  0.65000000  1.0
  P  P7072  1  0.48797251  0.00495577  0.65000000  1.0
  P  P7073  1  0.48797251  0.12995577  0.65000000  1.0
  P  P7074  1  0.48797251  0.25495577  0.65000000  1.0
  P  P7075  1  0.48797251  0.37995577  0.65000000  1.0
  P  P7076  1  0.48797251  0.50495577  0.65000000  1.0
  P  P7077  1  0.48797251  0.62995577  0.65000000  1.0
  P  P7078  1  0.48797251  0.75495577  0.65000000  1.0
  P  P7079  1  0.48797251  0.87995577  0.65000000  1.0
  P  P7080  1  0.58797251  0.00495577  0.65000000  1.0
  P  P7081  1  0.58797251  0.12995577  0.65000000  1.0
  P  P7082  1  0.58797251  0.25495577  0.65000000  1.0
  P  P7083  1  0.58797251  0.37995577  0.65000000  1.0
  P  P7084  1  0.58797251  0.50495577  0.65000000  1.0
  P  P7085  1  0.58797251  0.62995577  0.65000000  1.0
  P  P7086  1  0.58797251  0.75495577  0.65000000  1.0
  P  P7087  1  0.58797251  0.87995577  0.65000000  1.0
  P  P7088  1  0.68797251  0.00495577  0.65000000  1.0
  P  P7089  1  0.68797251  0.12995577  0.65000000  1.0
  P  P7090  1  0.68797251  0.25495577  0.65000000  1.0
  P  P7091  1  0.68797251  0.37995577  0.65000000  1.0
  P  P7092  1  0.68797251  0.50495577  0.65000000  1.0
  P  P7093  1  0.68797251  0.62995577  0.65000000  1.0
  P  P7094  1  0.68797251  0.75495577  0.65000000  1.0
  P  P7095  1  0.68797251  0.87995577  0.65000000  1.0
  P  P7096  1  0.78797251  0.00495577  0.65000000  1.0
  P  P7097  1  0.78797251  0.12995577  0.65000000  1.0
  P  P7098  1  0.78797251  0.25495577  0.65000000  1.0
  P  P7099  1  0.78797251  0.37995577  0.65000000  1.0
  P  P7100  1  0.78797251  0.50495577  0.65000000  1.0
  P  P7101  1  0.78797251  0.62995577  0.65000000  1.0
  P  P7102  1  0.78797251  0.75495577  0.65000000  1.0
  P  P7103  1  0.78797251  0.87995577  0.65000000  1.0
  P  P7104  1  0.88797251  0.00495577  0.65000000  1.0
  P  P7105  1  0.88797251  0.12995577  0.65000000  1.0
  P  P7106  1  0.88797251  0.25495577  0.65000000  1.0
  P  P7107  1  0.88797251  0.37995577  0.65000000  1.0
  P  P7108  1  0.88797251  0.50495577  0.65000000  1.0
  P  P7109  1  0.88797251  0.62995577  0.65000000  1.0
  P  P7110  1  0.88797251  0.75495577  0.65000000  1.0
  P  P7111  1  0.88797251  0.87995577  0.65000000  1.0
  P  P7112  1  0.98797251  0.00495577  0.65000000  1.0
  P  P7113  1  0.98797251  0.12995577  0.65000000  1.0
  P  P7114  1  0.98797251  0.25495577  0.65000000  1.0
  P  P7115  1  0.98797251  0.37995577  0.65000000  1.0
  P  P7116  1  0.98797251  0.50495577  0.65000000  1.0
  P  P7117  1  0.98797251  0.62995577  0.65000000  1.0
  P  P7118  1  0.98797251  0.75495577  0.65000000  1.0
  P  P7119  1  0.98797251  0.87995577  0.65000000  1.0
  P  P7120  1  0.01202749  0.12004423  0.61666667  1.0
  P  P7121  1  0.01202749  0.24504423  0.61666667  1.0
  P  P7122  1  0.01202749  0.37004423  0.61666667  1.0
  P  P7123  1  0.01202749  0.49504423  0.61666667  1.0
  P  P7124  1  0.01202749  0.62004423  0.61666667  1.0
  P  P7125  1  0.01202749  0.74504423  0.61666667  1.0
  P  P7126  1  0.01202749  0.87004423  0.61666667  1.0
  P  P7127  1  0.01202749  0.99504423  0.61666667  1.0
  P  P7128  1  0.11202749  0.12004423  0.61666667  1.0
  P  P7129  1  0.11202749  0.24504423  0.61666667  1.0
  P  P7130  1  0.11202749  0.37004423  0.61666667  1.0
  P  P7131  1  0.11202749  0.49504423  0.61666667  1.0
  P  P7132  1  0.11202749  0.62004423  0.61666667  1.0
  P  P7133  1  0.11202749  0.74504423  0.61666667  1.0
  P  P7134  1  0.11202749  0.87004423  0.61666667  1.0
  P  P7135  1  0.11202749  0.99504423  0.61666667  1.0
  P  P7136  1  0.21202749  0.12004423  0.61666667  1.0
  P  P7137  1  0.21202749  0.24504423  0.61666667  1.0
  P  P7138  1  0.21202749  0.37004423  0.61666667  1.0
  P  P7139  1  0.21202749  0.49504423  0.61666667  1.0
  P  P7140  1  0.21202749  0.62004423  0.61666667  1.0
  P  P7141  1  0.21202749  0.74504423  0.61666667  1.0
  P  P7142  1  0.21202749  0.87004423  0.61666667  1.0
  P  P7143  1  0.21202749  0.99504423  0.61666667  1.0
  P  P7144  1  0.31202749  0.12004423  0.61666667  1.0
  P  P7145  1  0.31202749  0.24504423  0.61666667  1.0
  P  P7146  1  0.31202749  0.37004423  0.61666667  1.0
  P  P7147  1  0.31202749  0.49504423  0.61666667  1.0
  P  P7148  1  0.31202749  0.62004423  0.61666667  1.0
  P  P7149  1  0.31202749  0.74504423  0.61666667  1.0
  P  P7150  1  0.31202749  0.87004423  0.61666667  1.0
  P  P7151  1  0.31202749  0.99504423  0.61666667  1.0
  P  P7152  1  0.41202749  0.12004423  0.61666667  1.0
  P  P7153  1  0.41202749  0.24504423  0.61666667  1.0
  P  P7154  1  0.41202749  0.37004423  0.61666667  1.0
  P  P7155  1  0.41202749  0.49504423  0.61666667  1.0
  P  P7156  1  0.41202749  0.62004423  0.61666667  1.0
  P  P7157  1  0.41202749  0.74504423  0.61666667  1.0
  P  P7158  1  0.41202749  0.87004423  0.61666667  1.0
  P  P7159  1  0.41202749  0.99504423  0.61666667  1.0
  P  P7160  1  0.51202749  0.12004423  0.61666667  1.0
  P  P7161  1  0.51202749  0.24504423  0.61666667  1.0
  P  P7162  1  0.51202749  0.37004423  0.61666667  1.0
  P  P7163  1  0.51202749  0.49504423  0.61666667  1.0
  P  P7164  1  0.51202749  0.62004423  0.61666667  1.0
  P  P7165  1  0.51202749  0.74504423  0.61666667  1.0
  P  P7166  1  0.51202749  0.87004423  0.61666667  1.0
  P  P7167  1  0.51202749  0.99504423  0.61666667  1.0
  P  P7168  1  0.61202749  0.12004423  0.61666667  1.0
  P  P7169  1  0.61202749  0.24504423  0.61666667  1.0
  P  P7170  1  0.61202749  0.37004423  0.61666667  1.0
  P  P7171  1  0.61202749  0.49504423  0.61666667  1.0
  P  P7172  1  0.61202749  0.62004423  0.61666667  1.0
  P  P7173  1  0.61202749  0.74504423  0.61666667  1.0
  P  P7174  1  0.61202749  0.87004423  0.61666667  1.0
  P  P7175  1  0.61202749  0.99504423  0.61666667  1.0
  P  P7176  1  0.71202749  0.12004423  0.61666667  1.0
  P  P7177  1  0.71202749  0.24504423  0.61666667  1.0
  P  P7178  1  0.71202749  0.37004423  0.61666667  1.0
  P  P7179  1  0.71202749  0.49504423  0.61666667  1.0
  P  P7180  1  0.71202749  0.62004423  0.61666667  1.0
  P  P7181  1  0.71202749  0.74504423  0.61666667  1.0
  P  P7182  1  0.71202749  0.87004423  0.61666667  1.0
  P  P7183  1  0.71202749  0.99504423  0.61666667  1.0
  P  P7184  1  0.81202749  0.12004423  0.61666667  1.0
  P  P7185  1  0.81202749  0.24504423  0.61666667  1.0
  P  P7186  1  0.81202749  0.37004423  0.61666667  1.0
  P  P7187  1  0.81202749  0.49504423  0.61666667  1.0
  P  P7188  1  0.81202749  0.62004423  0.61666667  1.0
  P  P7189  1  0.81202749  0.74504423  0.61666667  1.0
  P  P7190  1  0.81202749  0.87004423  0.61666667  1.0
  P  P7191  1  0.81202749  0.99504423  0.61666667  1.0
  P  P7192  1  0.91202749  0.12004423  0.61666667  1.0
  P  P7193  1  0.91202749  0.24504423  0.61666667  1.0
  P  P7194  1  0.91202749  0.37004423  0.61666667  1.0
  P  P7195  1  0.91202749  0.49504423  0.61666667  1.0
  P  P7196  1  0.91202749  0.62004423  0.61666667  1.0
  P  P7197  1  0.91202749  0.74504423  0.61666667  1.0
  P  P7198  1  0.91202749  0.87004423  0.61666667  1.0
  P  P7199  1  0.91202749  0.99504423  0.61666667  1.0
  P  P7200  1  0.03797251  0.05754423  0.65000000  1.0
  P  P7201  1  0.03797251  0.18254423  0.65000000  1.0
  P  P7202  1  0.03797251  0.30754423  0.65000000  1.0
  P  P7203  1  0.03797251  0.43254423  0.65000000  1.0
  P  P7204  1  0.03797251  0.55754423  0.65000000  1.0
  P  P7205  1  0.03797251  0.68254423  0.65000000  1.0
  P  P7206  1  0.03797251  0.80754423  0.65000000  1.0
  P  P7207  1  0.03797251  0.93254423  0.65000000  1.0
  P  P7208  1  0.13797251  0.05754423  0.65000000  1.0
  P  P7209  1  0.13797251  0.18254423  0.65000000  1.0
  P  P7210  1  0.13797251  0.30754423  0.65000000  1.0
  P  P7211  1  0.13797251  0.43254423  0.65000000  1.0
  P  P7212  1  0.13797251  0.55754423  0.65000000  1.0
  P  P7213  1  0.13797251  0.68254423  0.65000000  1.0
  P  P7214  1  0.13797251  0.80754423  0.65000000  1.0
  P  P7215  1  0.13797251  0.93254423  0.65000000  1.0
  P  P7216  1  0.23797251  0.05754423  0.65000000  1.0
  P  P7217  1  0.23797251  0.18254423  0.65000000  1.0
  P  P7218  1  0.23797251  0.30754423  0.65000000  1.0
  P  P7219  1  0.23797251  0.43254423  0.65000000  1.0
  P  P7220  1  0.23797251  0.55754423  0.65000000  1.0
  P  P7221  1  0.23797251  0.68254423  0.65000000  1.0
  P  P7222  1  0.23797251  0.80754423  0.65000000  1.0
  P  P7223  1  0.23797251  0.93254423  0.65000000  1.0
  P  P7224  1  0.33797251  0.05754423  0.65000000  1.0
  P  P7225  1  0.33797251  0.18254423  0.65000000  1.0
  P  P7226  1  0.33797251  0.30754423  0.65000000  1.0
  P  P7227  1  0.33797251  0.43254423  0.65000000  1.0
  P  P7228  1  0.33797251  0.55754423  0.65000000  1.0
  P  P7229  1  0.33797251  0.68254423  0.65000000  1.0
  P  P7230  1  0.33797251  0.80754423  0.65000000  1.0
  P  P7231  1  0.33797251  0.93254423  0.65000000  1.0
  P  P7232  1  0.43797251  0.05754423  0.65000000  1.0
  P  P7233  1  0.43797251  0.18254423  0.65000000  1.0
  P  P7234  1  0.43797251  0.30754423  0.65000000  1.0
  P  P7235  1  0.43797251  0.43254423  0.65000000  1.0
  P  P7236  1  0.43797251  0.55754423  0.65000000  1.0
  P  P7237  1  0.43797251  0.68254423  0.65000000  1.0
  P  P7238  1  0.43797251  0.80754423  0.65000000  1.0
  P  P7239  1  0.43797251  0.93254423  0.65000000  1.0
  P  P7240  1  0.53797251  0.05754423  0.65000000  1.0
  P  P7241  1  0.53797251  0.18254423  0.65000000  1.0
  P  P7242  1  0.53797251  0.30754423  0.65000000  1.0
  P  P7243  1  0.53797251  0.43254423  0.65000000  1.0
  P  P7244  1  0.53797251  0.55754423  0.65000000  1.0
  P  P7245  1  0.53797251  0.68254423  0.65000000  1.0
  P  P7246  1  0.53797251  0.80754423  0.65000000  1.0
  P  P7247  1  0.53797251  0.93254423  0.65000000  1.0
  P  P7248  1  0.63797251  0.05754423  0.65000000  1.0
  P  P7249  1  0.63797251  0.18254423  0.65000000  1.0
  P  P7250  1  0.63797251  0.30754423  0.65000000  1.0
  P  P7251  1  0.63797251  0.43254423  0.65000000  1.0
  P  P7252  1  0.63797251  0.55754423  0.65000000  1.0
  P  P7253  1  0.63797251  0.68254423  0.65000000  1.0
  P  P7254  1  0.63797251  0.80754423  0.65000000  1.0
  P  P7255  1  0.63797251  0.93254423  0.65000000  1.0
  P  P7256  1  0.73797251  0.05754423  0.65000000  1.0
  P  P7257  1  0.73797251  0.18254423  0.65000000  1.0
  P  P7258  1  0.73797251  0.30754423  0.65000000  1.0
  P  P7259  1  0.73797251  0.43254423  0.65000000  1.0
  P  P7260  1  0.73797251  0.55754423  0.65000000  1.0
  P  P7261  1  0.73797251  0.68254423  0.65000000  1.0
  P  P7262  1  0.73797251  0.80754423  0.65000000  1.0
  P  P7263  1  0.73797251  0.93254423  0.65000000  1.0
  P  P7264  1  0.83797251  0.05754423  0.65000000  1.0
  P  P7265  1  0.83797251  0.18254423  0.65000000  1.0
  P  P7266  1  0.83797251  0.30754423  0.65000000  1.0
  P  P7267  1  0.83797251  0.43254423  0.65000000  1.0
  P  P7268  1  0.83797251  0.55754423  0.65000000  1.0
  P  P7269  1  0.83797251  0.68254423  0.65000000  1.0
  P  P7270  1  0.83797251  0.80754423  0.65000000  1.0
  P  P7271  1  0.83797251  0.93254423  0.65000000  1.0
  P  P7272  1  0.93797251  0.05754423  0.65000000  1.0
  P  P7273  1  0.93797251  0.18254423  0.65000000  1.0
  P  P7274  1  0.93797251  0.30754423  0.65000000  1.0
  P  P7275  1  0.93797251  0.43254423  0.65000000  1.0
  P  P7276  1  0.93797251  0.55754423  0.65000000  1.0
  P  P7277  1  0.93797251  0.68254423  0.65000000  1.0
  P  P7278  1  0.93797251  0.80754423  0.65000000  1.0
  P  P7279  1  0.93797251  0.93254423  0.65000000  1.0
  P  P7280  1  0.06202749  0.06745577  0.61666667  1.0
  P  P7281  1  0.06202749  0.19245577  0.61666667  1.0
  P  P7282  1  0.06202749  0.31745577  0.61666667  1.0
  P  P7283  1  0.06202749  0.44245577  0.61666667  1.0
  P  P7284  1  0.06202749  0.56745577  0.61666667  1.0
  P  P7285  1  0.06202749  0.69245577  0.61666667  1.0
  P  P7286  1  0.06202749  0.81745577  0.61666667  1.0
  P  P7287  1  0.06202749  0.94245577  0.61666667  1.0
  P  P7288  1  0.16202749  0.06745577  0.61666667  1.0
  P  P7289  1  0.16202749  0.19245577  0.61666667  1.0
  P  P7290  1  0.16202749  0.31745577  0.61666667  1.0
  P  P7291  1  0.16202749  0.44245577  0.61666667  1.0
  P  P7292  1  0.16202749  0.56745577  0.61666667  1.0
  P  P7293  1  0.16202749  0.69245577  0.61666667  1.0
  P  P7294  1  0.16202749  0.81745577  0.61666667  1.0
  P  P7295  1  0.16202749  0.94245577  0.61666667  1.0
  P  P7296  1  0.26202749  0.06745577  0.61666667  1.0
  P  P7297  1  0.26202749  0.19245577  0.61666667  1.0
  P  P7298  1  0.26202749  0.31745577  0.61666667  1.0
  P  P7299  1  0.26202749  0.44245577  0.61666667  1.0
  P  P7300  1  0.26202749  0.56745577  0.61666667  1.0
  P  P7301  1  0.26202749  0.69245577  0.61666667  1.0
  P  P7302  1  0.26202749  0.81745577  0.61666667  1.0
  P  P7303  1  0.26202749  0.94245577  0.61666667  1.0
  P  P7304  1  0.36202749  0.06745577  0.61666667  1.0
  P  P7305  1  0.36202749  0.19245577  0.61666667  1.0
  P  P7306  1  0.36202749  0.31745577  0.61666667  1.0
  P  P7307  1  0.36202749  0.44245577  0.61666667  1.0
  P  P7308  1  0.36202749  0.56745577  0.61666667  1.0
  P  P7309  1  0.36202749  0.69245577  0.61666667  1.0
  P  P7310  1  0.36202749  0.81745577  0.61666667  1.0
  P  P7311  1  0.36202749  0.94245577  0.61666667  1.0
  P  P7312  1  0.46202749  0.06745577  0.61666667  1.0
  P  P7313  1  0.46202749  0.19245577  0.61666667  1.0
  P  P7314  1  0.46202749  0.31745577  0.61666667  1.0
  P  P7315  1  0.46202749  0.44245577  0.61666667  1.0
  P  P7316  1  0.46202749  0.56745577  0.61666667  1.0
  P  P7317  1  0.46202749  0.69245577  0.61666667  1.0
  P  P7318  1  0.46202749  0.81745577  0.61666667  1.0
  P  P7319  1  0.46202749  0.94245577  0.61666667  1.0
  P  P7320  1  0.56202749  0.06745577  0.61666667  1.0
  P  P7321  1  0.56202749  0.19245577  0.61666667  1.0
  P  P7322  1  0.56202749  0.31745577  0.61666667  1.0
  P  P7323  1  0.56202749  0.44245577  0.61666667  1.0
  P  P7324  1  0.56202749  0.56745577  0.61666667  1.0
  P  P7325  1  0.56202749  0.69245577  0.61666667  1.0
  P  P7326  1  0.56202749  0.81745577  0.61666667  1.0
  P  P7327  1  0.56202749  0.94245577  0.61666667  1.0
  P  P7328  1  0.66202749  0.06745577  0.61666667  1.0
  P  P7329  1  0.66202749  0.19245577  0.61666667  1.0
  P  P7330  1  0.66202749  0.31745577  0.61666667  1.0
  P  P7331  1  0.66202749  0.44245577  0.61666667  1.0
  P  P7332  1  0.66202749  0.56745577  0.61666667  1.0
  P  P7333  1  0.66202749  0.69245577  0.61666667  1.0
  P  P7334  1  0.66202749  0.81745577  0.61666667  1.0
  P  P7335  1  0.66202749  0.94245577  0.61666667  1.0
  P  P7336  1  0.76202749  0.06745577  0.61666667  1.0
  P  P7337  1  0.76202749  0.19245577  0.61666667  1.0
  P  P7338  1  0.76202749  0.31745577  0.61666667  1.0
  P  P7339  1  0.76202749  0.44245577  0.61666667  1.0
  P  P7340  1  0.76202749  0.56745577  0.61666667  1.0
  P  P7341  1  0.76202749  0.69245577  0.61666667  1.0
  P  P7342  1  0.76202749  0.81745577  0.61666667  1.0
  P  P7343  1  0.76202749  0.94245577  0.61666667  1.0
  P  P7344  1  0.86202749  0.06745577  0.61666667  1.0
  P  P7345  1  0.86202749  0.19245577  0.61666667  1.0
  P  P7346  1  0.86202749  0.31745577  0.61666667  1.0
  P  P7347  1  0.86202749  0.44245577  0.61666667  1.0
  P  P7348  1  0.86202749  0.56745577  0.61666667  1.0
  P  P7349  1  0.86202749  0.69245577  0.61666667  1.0
  P  P7350  1  0.86202749  0.81745577  0.61666667  1.0
  P  P7351  1  0.86202749  0.94245577  0.61666667  1.0
  P  P7352  1  0.96202749  0.06745577  0.61666667  1.0
  P  P7353  1  0.96202749  0.19245577  0.61666667  1.0
  P  P7354  1  0.96202749  0.31745577  0.61666667  1.0
  P  P7355  1  0.96202749  0.44245577  0.61666667  1.0
  P  P7356  1  0.96202749  0.56745577  0.61666667  1.0
  P  P7357  1  0.96202749  0.69245577  0.61666667  1.0
  P  P7358  1  0.96202749  0.81745577  0.61666667  1.0
  P  P7359  1  0.96202749  0.94245577  0.61666667  1.0
  P  P7360  1  0.05878854  0.01712191  0.68333333  1.0
  P  P7361  1  0.05878854  0.14212191  0.68333333  1.0
  P  P7362  1  0.05878854  0.26712191  0.68333333  1.0
  P  P7363  1  0.05878854  0.39212191  0.68333333  1.0
  P  P7364  1  0.05878854  0.51712191  0.68333333  1.0
  P  P7365  1  0.05878854  0.64212191  0.68333333  1.0
  P  P7366  1  0.05878854  0.76712191  0.68333333  1.0
  P  P7367  1  0.05878854  0.89212191  0.68333333  1.0
  P  P7368  1  0.15878854  0.01712191  0.68333333  1.0
  P  P7369  1  0.15878854  0.14212191  0.68333333  1.0
  P  P7370  1  0.15878854  0.26712191  0.68333333  1.0
  P  P7371  1  0.15878854  0.39212191  0.68333333  1.0
  P  P7372  1  0.15878854  0.51712191  0.68333333  1.0
  P  P7373  1  0.15878854  0.64212191  0.68333333  1.0
  P  P7374  1  0.15878854  0.76712191  0.68333333  1.0
  P  P7375  1  0.15878854  0.89212191  0.68333333  1.0
  P  P7376  1  0.25878854  0.01712191  0.68333333  1.0
  P  P7377  1  0.25878854  0.14212191  0.68333333  1.0
  P  P7378  1  0.25878854  0.26712191  0.68333333  1.0
  P  P7379  1  0.25878854  0.39212191  0.68333333  1.0
  P  P7380  1  0.25878854  0.51712191  0.68333333  1.0
  P  P7381  1  0.25878854  0.64212191  0.68333333  1.0
  P  P7382  1  0.25878854  0.76712191  0.68333333  1.0
  P  P7383  1  0.25878854  0.89212191  0.68333333  1.0
  P  P7384  1  0.35878854  0.01712191  0.68333333  1.0
  P  P7385  1  0.35878854  0.14212191  0.68333333  1.0
  P  P7386  1  0.35878854  0.26712191  0.68333333  1.0
  P  P7387  1  0.35878854  0.39212191  0.68333333  1.0
  P  P7388  1  0.35878854  0.51712191  0.68333333  1.0
  P  P7389  1  0.35878854  0.64212191  0.68333333  1.0
  P  P7390  1  0.35878854  0.76712191  0.68333333  1.0
  P  P7391  1  0.35878854  0.89212191  0.68333333  1.0
  P  P7392  1  0.45878854  0.01712191  0.68333333  1.0
  P  P7393  1  0.45878854  0.14212191  0.68333333  1.0
  P  P7394  1  0.45878854  0.26712191  0.68333333  1.0
  P  P7395  1  0.45878854  0.39212191  0.68333333  1.0
  P  P7396  1  0.45878854  0.51712191  0.68333333  1.0
  P  P7397  1  0.45878854  0.64212191  0.68333333  1.0
  P  P7398  1  0.45878854  0.76712191  0.68333333  1.0
  P  P7399  1  0.45878854  0.89212191  0.68333333  1.0
  P  P7400  1  0.55878854  0.01712191  0.68333333  1.0
  P  P7401  1  0.55878854  0.14212191  0.68333333  1.0
  P  P7402  1  0.55878854  0.26712191  0.68333333  1.0
  P  P7403  1  0.55878854  0.39212191  0.68333333  1.0
  P  P7404  1  0.55878854  0.51712191  0.68333333  1.0
  P  P7405  1  0.55878854  0.64212191  0.68333333  1.0
  P  P7406  1  0.55878854  0.76712191  0.68333333  1.0
  P  P7407  1  0.55878854  0.89212191  0.68333333  1.0
  P  P7408  1  0.65878854  0.01712191  0.68333333  1.0
  P  P7409  1  0.65878854  0.14212191  0.68333333  1.0
  P  P7410  1  0.65878854  0.26712191  0.68333333  1.0
  P  P7411  1  0.65878854  0.39212191  0.68333333  1.0
  P  P7412  1  0.65878854  0.51712191  0.68333333  1.0
  P  P7413  1  0.65878854  0.64212191  0.68333333  1.0
  P  P7414  1  0.65878854  0.76712191  0.68333333  1.0
  P  P7415  1  0.65878854  0.89212191  0.68333333  1.0
  P  P7416  1  0.75878854  0.01712191  0.68333333  1.0
  P  P7417  1  0.75878854  0.14212191  0.68333333  1.0
  P  P7418  1  0.75878854  0.26712191  0.68333333  1.0
  P  P7419  1  0.75878854  0.39212191  0.68333333  1.0
  P  P7420  1  0.75878854  0.51712191  0.68333333  1.0
  P  P7421  1  0.75878854  0.64212191  0.68333333  1.0
  P  P7422  1  0.75878854  0.76712191  0.68333333  1.0
  P  P7423  1  0.75878854  0.89212191  0.68333333  1.0
  P  P7424  1  0.85878854  0.01712191  0.68333333  1.0
  P  P7425  1  0.85878854  0.14212191  0.68333333  1.0
  P  P7426  1  0.85878854  0.26712191  0.68333333  1.0
  P  P7427  1  0.85878854  0.39212191  0.68333333  1.0
  P  P7428  1  0.85878854  0.51712191  0.68333333  1.0
  P  P7429  1  0.85878854  0.64212191  0.68333333  1.0
  P  P7430  1  0.85878854  0.76712191  0.68333333  1.0
  P  P7431  1  0.85878854  0.89212191  0.68333333  1.0
  P  P7432  1  0.95878854  0.01712191  0.68333333  1.0
  P  P7433  1  0.95878854  0.14212191  0.68333333  1.0
  P  P7434  1  0.95878854  0.26712191  0.68333333  1.0
  P  P7435  1  0.95878854  0.39212191  0.68333333  1.0
  P  P7436  1  0.95878854  0.51712191  0.68333333  1.0
  P  P7437  1  0.95878854  0.64212191  0.68333333  1.0
  P  P7438  1  0.95878854  0.76712191  0.68333333  1.0
  P  P7439  1  0.95878854  0.89212191  0.68333333  1.0
  P  P7440  1  0.04121146  0.10787809  0.71666667  1.0
  P  P7441  1  0.04121146  0.23287809  0.71666667  1.0
  P  P7442  1  0.04121146  0.35787809  0.71666667  1.0
  P  P7443  1  0.04121146  0.48287809  0.71666667  1.0
  P  P7444  1  0.04121146  0.60787809  0.71666667  1.0
  P  P7445  1  0.04121146  0.73287809  0.71666667  1.0
  P  P7446  1  0.04121146  0.85787809  0.71666667  1.0
  P  P7447  1  0.04121146  0.98287809  0.71666667  1.0
  P  P7448  1  0.14121146  0.10787809  0.71666667  1.0
  P  P7449  1  0.14121146  0.23287809  0.71666667  1.0
  P  P7450  1  0.14121146  0.35787809  0.71666667  1.0
  P  P7451  1  0.14121146  0.48287809  0.71666667  1.0
  P  P7452  1  0.14121146  0.60787809  0.71666667  1.0
  P  P7453  1  0.14121146  0.73287809  0.71666667  1.0
  P  P7454  1  0.14121146  0.85787809  0.71666667  1.0
  P  P7455  1  0.14121146  0.98287809  0.71666667  1.0
  P  P7456  1  0.24121146  0.10787809  0.71666667  1.0
  P  P7457  1  0.24121146  0.23287809  0.71666667  1.0
  P  P7458  1  0.24121146  0.35787809  0.71666667  1.0
  P  P7459  1  0.24121146  0.48287809  0.71666667  1.0
  P  P7460  1  0.24121146  0.60787809  0.71666667  1.0
  P  P7461  1  0.24121146  0.73287809  0.71666667  1.0
  P  P7462  1  0.24121146  0.85787809  0.71666667  1.0
  P  P7463  1  0.24121146  0.98287809  0.71666667  1.0
  P  P7464  1  0.34121146  0.10787809  0.71666667  1.0
  P  P7465  1  0.34121146  0.23287809  0.71666667  1.0
  P  P7466  1  0.34121146  0.35787809  0.71666667  1.0
  P  P7467  1  0.34121146  0.48287809  0.71666667  1.0
  P  P7468  1  0.34121146  0.60787809  0.71666667  1.0
  P  P7469  1  0.34121146  0.73287809  0.71666667  1.0
  P  P7470  1  0.34121146  0.85787809  0.71666667  1.0
  P  P7471  1  0.34121146  0.98287809  0.71666667  1.0
  P  P7472  1  0.44121146  0.10787809  0.71666667  1.0
  P  P7473  1  0.44121146  0.23287809  0.71666667  1.0
  P  P7474  1  0.44121146  0.35787809  0.71666667  1.0
  P  P7475  1  0.44121146  0.48287809  0.71666667  1.0
  P  P7476  1  0.44121146  0.60787809  0.71666667  1.0
  P  P7477  1  0.44121146  0.73287809  0.71666667  1.0
  P  P7478  1  0.44121146  0.85787809  0.71666667  1.0
  P  P7479  1  0.44121146  0.98287809  0.71666667  1.0
  P  P7480  1  0.54121146  0.10787809  0.71666667  1.0
  P  P7481  1  0.54121146  0.23287809  0.71666667  1.0
  P  P7482  1  0.54121146  0.35787809  0.71666667  1.0
  P  P7483  1  0.54121146  0.48287809  0.71666667  1.0
  P  P7484  1  0.54121146  0.60787809  0.71666667  1.0
  P  P7485  1  0.54121146  0.73287809  0.71666667  1.0
  P  P7486  1  0.54121146  0.85787809  0.71666667  1.0
  P  P7487  1  0.54121146  0.98287809  0.71666667  1.0
  P  P7488  1  0.64121146  0.10787809  0.71666667  1.0
  P  P7489  1  0.64121146  0.23287809  0.71666667  1.0
  P  P7490  1  0.64121146  0.35787809  0.71666667  1.0
  P  P7491  1  0.64121146  0.48287809  0.71666667  1.0
  P  P7492  1  0.64121146  0.60787809  0.71666667  1.0
  P  P7493  1  0.64121146  0.73287809  0.71666667  1.0
  P  P7494  1  0.64121146  0.85787809  0.71666667  1.0
  P  P7495  1  0.64121146  0.98287809  0.71666667  1.0
  P  P7496  1  0.74121146  0.10787809  0.71666667  1.0
  P  P7497  1  0.74121146  0.23287809  0.71666667  1.0
  P  P7498  1  0.74121146  0.35787809  0.71666667  1.0
  P  P7499  1  0.74121146  0.48287809  0.71666667  1.0
  P  P7500  1  0.74121146  0.60787809  0.71666667  1.0
  P  P7501  1  0.74121146  0.73287809  0.71666667  1.0
  P  P7502  1  0.74121146  0.85787809  0.71666667  1.0
  P  P7503  1  0.74121146  0.98287809  0.71666667  1.0
  P  P7504  1  0.84121146  0.10787809  0.71666667  1.0
  P  P7505  1  0.84121146  0.23287809  0.71666667  1.0
  P  P7506  1  0.84121146  0.35787809  0.71666667  1.0
  P  P7507  1  0.84121146  0.48287809  0.71666667  1.0
  P  P7508  1  0.84121146  0.60787809  0.71666667  1.0
  P  P7509  1  0.84121146  0.73287809  0.71666667  1.0
  P  P7510  1  0.84121146  0.85787809  0.71666667  1.0
  P  P7511  1  0.84121146  0.98287809  0.71666667  1.0
  P  P7512  1  0.94121146  0.10787809  0.71666667  1.0
  P  P7513  1  0.94121146  0.23287809  0.71666667  1.0
  P  P7514  1  0.94121146  0.35787809  0.71666667  1.0
  P  P7515  1  0.94121146  0.48287809  0.71666667  1.0
  P  P7516  1  0.94121146  0.60787809  0.71666667  1.0
  P  P7517  1  0.94121146  0.73287809  0.71666667  1.0
  P  P7518  1  0.94121146  0.85787809  0.71666667  1.0
  P  P7519  1  0.94121146  0.98287809  0.71666667  1.0
  P  P7520  1  0.00878854  0.04537809  0.68333333  1.0
  P  P7521  1  0.00878854  0.17037809  0.68333333  1.0
  P  P7522  1  0.00878854  0.29537809  0.68333333  1.0
  P  P7523  1  0.00878854  0.42037809  0.68333333  1.0
  P  P7524  1  0.00878854  0.54537809  0.68333333  1.0
  P  P7525  1  0.00878854  0.67037809  0.68333333  1.0
  P  P7526  1  0.00878854  0.79537809  0.68333333  1.0
  P  P7527  1  0.00878854  0.92037809  0.68333333  1.0
  P  P7528  1  0.10878854  0.04537809  0.68333333  1.0
  P  P7529  1  0.10878854  0.17037809  0.68333333  1.0
  P  P7530  1  0.10878854  0.29537809  0.68333333  1.0
  P  P7531  1  0.10878854  0.42037809  0.68333333  1.0
  P  P7532  1  0.10878854  0.54537809  0.68333333  1.0
  P  P7533  1  0.10878854  0.67037809  0.68333333  1.0
  P  P7534  1  0.10878854  0.79537809  0.68333333  1.0
  P  P7535  1  0.10878854  0.92037809  0.68333333  1.0
  P  P7536  1  0.20878854  0.04537809  0.68333333  1.0
  P  P7537  1  0.20878854  0.17037809  0.68333333  1.0
  P  P7538  1  0.20878854  0.29537809  0.68333333  1.0
  P  P7539  1  0.20878854  0.42037809  0.68333333  1.0
  P  P7540  1  0.20878854  0.54537809  0.68333333  1.0
  P  P7541  1  0.20878854  0.67037809  0.68333333  1.0
  P  P7542  1  0.20878854  0.79537809  0.68333333  1.0
  P  P7543  1  0.20878854  0.92037809  0.68333333  1.0
  P  P7544  1  0.30878854  0.04537809  0.68333333  1.0
  P  P7545  1  0.30878854  0.17037809  0.68333333  1.0
  P  P7546  1  0.30878854  0.29537809  0.68333333  1.0
  P  P7547  1  0.30878854  0.42037809  0.68333333  1.0
  P  P7548  1  0.30878854  0.54537809  0.68333333  1.0
  P  P7549  1  0.30878854  0.67037809  0.68333333  1.0
  P  P7550  1  0.30878854  0.79537809  0.68333333  1.0
  P  P7551  1  0.30878854  0.92037809  0.68333333  1.0
  P  P7552  1  0.40878854  0.04537809  0.68333333  1.0
  P  P7553  1  0.40878854  0.17037809  0.68333333  1.0
  P  P7554  1  0.40878854  0.29537809  0.68333333  1.0
  P  P7555  1  0.40878854  0.42037809  0.68333333  1.0
  P  P7556  1  0.40878854  0.54537809  0.68333333  1.0
  P  P7557  1  0.40878854  0.67037809  0.68333333  1.0
  P  P7558  1  0.40878854  0.79537809  0.68333333  1.0
  P  P7559  1  0.40878854  0.92037809  0.68333333  1.0
  P  P7560  1  0.50878854  0.04537809  0.68333333  1.0
  P  P7561  1  0.50878854  0.17037809  0.68333333  1.0
  P  P7562  1  0.50878854  0.29537809  0.68333333  1.0
  P  P7563  1  0.50878854  0.42037809  0.68333333  1.0
  P  P7564  1  0.50878854  0.54537809  0.68333333  1.0
  P  P7565  1  0.50878854  0.67037809  0.68333333  1.0
  P  P7566  1  0.50878854  0.79537809  0.68333333  1.0
  P  P7567  1  0.50878854  0.92037809  0.68333333  1.0
  P  P7568  1  0.60878854  0.04537809  0.68333333  1.0
  P  P7569  1  0.60878854  0.17037809  0.68333333  1.0
  P  P7570  1  0.60878854  0.29537809  0.68333333  1.0
  P  P7571  1  0.60878854  0.42037809  0.68333333  1.0
  P  P7572  1  0.60878854  0.54537809  0.68333333  1.0
  P  P7573  1  0.60878854  0.67037809  0.68333333  1.0
  P  P7574  1  0.60878854  0.79537809  0.68333333  1.0
  P  P7575  1  0.60878854  0.92037809  0.68333333  1.0
  P  P7576  1  0.70878854  0.04537809  0.68333333  1.0
  P  P7577  1  0.70878854  0.17037809  0.68333333  1.0
  P  P7578  1  0.70878854  0.29537809  0.68333333  1.0
  P  P7579  1  0.70878854  0.42037809  0.68333333  1.0
  P  P7580  1  0.70878854  0.54537809  0.68333333  1.0
  P  P7581  1  0.70878854  0.67037809  0.68333333  1.0
  P  P7582  1  0.70878854  0.79537809  0.68333333  1.0
  P  P7583  1  0.70878854  0.92037809  0.68333333  1.0
  P  P7584  1  0.80878854  0.04537809  0.68333333  1.0
  P  P7585  1  0.80878854  0.17037809  0.68333333  1.0
  P  P7586  1  0.80878854  0.29537809  0.68333333  1.0
  P  P7587  1  0.80878854  0.42037809  0.68333333  1.0
  P  P7588  1  0.80878854  0.54537809  0.68333333  1.0
  P  P7589  1  0.80878854  0.67037809  0.68333333  1.0
  P  P7590  1  0.80878854  0.79537809  0.68333333  1.0
  P  P7591  1  0.80878854  0.92037809  0.68333333  1.0
  P  P7592  1  0.90878854  0.04537809  0.68333333  1.0
  P  P7593  1  0.90878854  0.17037809  0.68333333  1.0
  P  P7594  1  0.90878854  0.29537809  0.68333333  1.0
  P  P7595  1  0.90878854  0.42037809  0.68333333  1.0
  P  P7596  1  0.90878854  0.54537809  0.68333333  1.0
  P  P7597  1  0.90878854  0.67037809  0.68333333  1.0
  P  P7598  1  0.90878854  0.79537809  0.68333333  1.0
  P  P7599  1  0.90878854  0.92037809  0.68333333  1.0
  P  P7600  1  0.09121146  0.07962191  0.71666667  1.0
  P  P7601  1  0.09121146  0.20462191  0.71666667  1.0
  P  P7602  1  0.09121146  0.32962191  0.71666667  1.0
  P  P7603  1  0.09121146  0.45462191  0.71666667  1.0
  P  P7604  1  0.09121146  0.57962191  0.71666667  1.0
  P  P7605  1  0.09121146  0.70462191  0.71666667  1.0
  P  P7606  1  0.09121146  0.82962191  0.71666667  1.0
  P  P7607  1  0.09121146  0.95462191  0.71666667  1.0
  P  P7608  1  0.19121146  0.07962191  0.71666667  1.0
  P  P7609  1  0.19121146  0.20462191  0.71666667  1.0
  P  P7610  1  0.19121146  0.32962191  0.71666667  1.0
  P  P7611  1  0.19121146  0.45462191  0.71666667  1.0
  P  P7612  1  0.19121146  0.57962191  0.71666667  1.0
  P  P7613  1  0.19121146  0.70462191  0.71666667  1.0
  P  P7614  1  0.19121146  0.82962191  0.71666667  1.0
  P  P7615  1  0.19121146  0.95462191  0.71666667  1.0
  P  P7616  1  0.29121146  0.07962191  0.71666667  1.0
  P  P7617  1  0.29121146  0.20462191  0.71666667  1.0
  P  P7618  1  0.29121146  0.32962191  0.71666667  1.0
  P  P7619  1  0.29121146  0.45462191  0.71666667  1.0
  P  P7620  1  0.29121146  0.57962191  0.71666667  1.0
  P  P7621  1  0.29121146  0.70462191  0.71666667  1.0
  P  P7622  1  0.29121146  0.82962191  0.71666667  1.0
  P  P7623  1  0.29121146  0.95462191  0.71666667  1.0
  P  P7624  1  0.39121146  0.07962191  0.71666667  1.0
  P  P7625  1  0.39121146  0.20462191  0.71666667  1.0
  P  P7626  1  0.39121146  0.32962191  0.71666667  1.0
  P  P7627  1  0.39121146  0.45462191  0.71666667  1.0
  P  P7628  1  0.39121146  0.57962191  0.71666667  1.0
  P  P7629  1  0.39121146  0.70462191  0.71666667  1.0
  P  P7630  1  0.39121146  0.82962191  0.71666667  1.0
  P  P7631  1  0.39121146  0.95462191  0.71666667  1.0
  P  P7632  1  0.49121146  0.07962191  0.71666667  1.0
  P  P7633  1  0.49121146  0.20462191  0.71666667  1.0
  P  P7634  1  0.49121146  0.32962191  0.71666667  1.0
  P  P7635  1  0.49121146  0.45462191  0.71666667  1.0
  P  P7636  1  0.49121146  0.57962191  0.71666667  1.0
  P  P7637  1  0.49121146  0.70462191  0.71666667  1.0
  P  P7638  1  0.49121146  0.82962191  0.71666667  1.0
  P  P7639  1  0.49121146  0.95462191  0.71666667  1.0
  P  P7640  1  0.59121146  0.07962191  0.71666667  1.0
  P  P7641  1  0.59121146  0.20462191  0.71666667  1.0
  P  P7642  1  0.59121146  0.32962191  0.71666667  1.0
  P  P7643  1  0.59121146  0.45462191  0.71666667  1.0
  P  P7644  1  0.59121146  0.57962191  0.71666667  1.0
  P  P7645  1  0.59121146  0.70462191  0.71666667  1.0
  P  P7646  1  0.59121146  0.82962191  0.71666667  1.0
  P  P7647  1  0.59121146  0.95462191  0.71666667  1.0
  P  P7648  1  0.69121146  0.07962191  0.71666667  1.0
  P  P7649  1  0.69121146  0.20462191  0.71666667  1.0
  P  P7650  1  0.69121146  0.32962191  0.71666667  1.0
  P  P7651  1  0.69121146  0.45462191  0.71666667  1.0
  P  P7652  1  0.69121146  0.57962191  0.71666667  1.0
  P  P7653  1  0.69121146  0.70462191  0.71666667  1.0
  P  P7654  1  0.69121146  0.82962191  0.71666667  1.0
  P  P7655  1  0.69121146  0.95462191  0.71666667  1.0
  P  P7656  1  0.79121146  0.07962191  0.71666667  1.0
  P  P7657  1  0.79121146  0.20462191  0.71666667  1.0
  P  P7658  1  0.79121146  0.32962191  0.71666667  1.0
  P  P7659  1  0.79121146  0.45462191  0.71666667  1.0
  P  P7660  1  0.79121146  0.57962191  0.71666667  1.0
  P  P7661  1  0.79121146  0.70462191  0.71666667  1.0
  P  P7662  1  0.79121146  0.82962191  0.71666667  1.0
  P  P7663  1  0.79121146  0.95462191  0.71666667  1.0
  P  P7664  1  0.89121146  0.07962191  0.71666667  1.0
  P  P7665  1  0.89121146  0.20462191  0.71666667  1.0
  P  P7666  1  0.89121146  0.32962191  0.71666667  1.0
  P  P7667  1  0.89121146  0.45462191  0.71666667  1.0
  P  P7668  1  0.89121146  0.57962191  0.71666667  1.0
  P  P7669  1  0.89121146  0.70462191  0.71666667  1.0
  P  P7670  1  0.89121146  0.82962191  0.71666667  1.0
  P  P7671  1  0.89121146  0.95462191  0.71666667  1.0
  P  P7672  1  0.99121146  0.07962191  0.71666667  1.0
  P  P7673  1  0.99121146  0.20462191  0.71666667  1.0
  P  P7674  1  0.99121146  0.32962191  0.71666667  1.0
  P  P7675  1  0.99121146  0.45462191  0.71666667  1.0
  P  P7676  1  0.99121146  0.57962191  0.71666667  1.0
  P  P7677  1  0.99121146  0.70462191  0.71666667  1.0
  P  P7678  1  0.99121146  0.82962191  0.71666667  1.0
  P  P7679  1  0.99121146  0.95462191  0.71666667  1.0
  P  P7680  1  0.08797251  0.00495577  0.71666667  1.0
  P  P7681  1  0.08797251  0.12995577  0.71666667  1.0
  P  P7682  1  0.08797251  0.25495577  0.71666667  1.0
  P  P7683  1  0.08797251  0.37995577  0.71666667  1.0
  P  P7684  1  0.08797251  0.50495577  0.71666667  1.0
  P  P7685  1  0.08797251  0.62995577  0.71666667  1.0
  P  P7686  1  0.08797251  0.75495577  0.71666667  1.0
  P  P7687  1  0.08797251  0.87995577  0.71666667  1.0
  P  P7688  1  0.18797251  0.00495577  0.71666667  1.0
  P  P7689  1  0.18797251  0.12995577  0.71666667  1.0
  P  P7690  1  0.18797251  0.25495577  0.71666667  1.0
  P  P7691  1  0.18797251  0.37995577  0.71666667  1.0
  P  P7692  1  0.18797251  0.50495577  0.71666667  1.0
  P  P7693  1  0.18797251  0.62995577  0.71666667  1.0
  P  P7694  1  0.18797251  0.75495577  0.71666667  1.0
  P  P7695  1  0.18797251  0.87995577  0.71666667  1.0
  P  P7696  1  0.28797251  0.00495577  0.71666667  1.0
  P  P7697  1  0.28797251  0.12995577  0.71666667  1.0
  P  P7698  1  0.28797251  0.25495577  0.71666667  1.0
  P  P7699  1  0.28797251  0.37995577  0.71666667  1.0
  P  P7700  1  0.28797251  0.50495577  0.71666667  1.0
  P  P7701  1  0.28797251  0.62995577  0.71666667  1.0
  P  P7702  1  0.28797251  0.75495577  0.71666667  1.0
  P  P7703  1  0.28797251  0.87995577  0.71666667  1.0
  P  P7704  1  0.38797251  0.00495577  0.71666667  1.0
  P  P7705  1  0.38797251  0.12995577  0.71666667  1.0
  P  P7706  1  0.38797251  0.25495577  0.71666667  1.0
  P  P7707  1  0.38797251  0.37995577  0.71666667  1.0
  P  P7708  1  0.38797251  0.50495577  0.71666667  1.0
  P  P7709  1  0.38797251  0.62995577  0.71666667  1.0
  P  P7710  1  0.38797251  0.75495577  0.71666667  1.0
  P  P7711  1  0.38797251  0.87995577  0.71666667  1.0
  P  P7712  1  0.48797251  0.00495577  0.71666667  1.0
  P  P7713  1  0.48797251  0.12995577  0.71666667  1.0
  P  P7714  1  0.48797251  0.25495577  0.71666667  1.0
  P  P7715  1  0.48797251  0.37995577  0.71666667  1.0
  P  P7716  1  0.48797251  0.50495577  0.71666667  1.0
  P  P7717  1  0.48797251  0.62995577  0.71666667  1.0
  P  P7718  1  0.48797251  0.75495577  0.71666667  1.0
  P  P7719  1  0.48797251  0.87995577  0.71666667  1.0
  P  P7720  1  0.58797251  0.00495577  0.71666667  1.0
  P  P7721  1  0.58797251  0.12995577  0.71666667  1.0
  P  P7722  1  0.58797251  0.25495577  0.71666667  1.0
  P  P7723  1  0.58797251  0.37995577  0.71666667  1.0
  P  P7724  1  0.58797251  0.50495577  0.71666667  1.0
  P  P7725  1  0.58797251  0.62995577  0.71666667  1.0
  P  P7726  1  0.58797251  0.75495577  0.71666667  1.0
  P  P7727  1  0.58797251  0.87995577  0.71666667  1.0
  P  P7728  1  0.68797251  0.00495577  0.71666667  1.0
  P  P7729  1  0.68797251  0.12995577  0.71666667  1.0
  P  P7730  1  0.68797251  0.25495577  0.71666667  1.0
  P  P7731  1  0.68797251  0.37995577  0.71666667  1.0
  P  P7732  1  0.68797251  0.50495577  0.71666667  1.0
  P  P7733  1  0.68797251  0.62995577  0.71666667  1.0
  P  P7734  1  0.68797251  0.75495577  0.71666667  1.0
  P  P7735  1  0.68797251  0.87995577  0.71666667  1.0
  P  P7736  1  0.78797251  0.00495577  0.71666667  1.0
  P  P7737  1  0.78797251  0.12995577  0.71666667  1.0
  P  P7738  1  0.78797251  0.25495577  0.71666667  1.0
  P  P7739  1  0.78797251  0.37995577  0.71666667  1.0
  P  P7740  1  0.78797251  0.50495577  0.71666667  1.0
  P  P7741  1  0.78797251  0.62995577  0.71666667  1.0
  P  P7742  1  0.78797251  0.75495577  0.71666667  1.0
  P  P7743  1  0.78797251  0.87995577  0.71666667  1.0
  P  P7744  1  0.88797251  0.00495577  0.71666667  1.0
  P  P7745  1  0.88797251  0.12995577  0.71666667  1.0
  P  P7746  1  0.88797251  0.25495577  0.71666667  1.0
  P  P7747  1  0.88797251  0.37995577  0.71666667  1.0
  P  P7748  1  0.88797251  0.50495577  0.71666667  1.0
  P  P7749  1  0.88797251  0.62995577  0.71666667  1.0
  P  P7750  1  0.88797251  0.75495577  0.71666667  1.0
  P  P7751  1  0.88797251  0.87995577  0.71666667  1.0
  P  P7752  1  0.98797251  0.00495577  0.71666667  1.0
  P  P7753  1  0.98797251  0.12995577  0.71666667  1.0
  P  P7754  1  0.98797251  0.25495577  0.71666667  1.0
  P  P7755  1  0.98797251  0.37995577  0.71666667  1.0
  P  P7756  1  0.98797251  0.50495577  0.71666667  1.0
  P  P7757  1  0.98797251  0.62995577  0.71666667  1.0
  P  P7758  1  0.98797251  0.75495577  0.71666667  1.0
  P  P7759  1  0.98797251  0.87995577  0.71666667  1.0
  P  P7760  1  0.01202749  0.12004423  0.68333333  1.0
  P  P7761  1  0.01202749  0.24504423  0.68333333  1.0
  P  P7762  1  0.01202749  0.37004423  0.68333333  1.0
  P  P7763  1  0.01202749  0.49504423  0.68333333  1.0
  P  P7764  1  0.01202749  0.62004423  0.68333333  1.0
  P  P7765  1  0.01202749  0.74504423  0.68333333  1.0
  P  P7766  1  0.01202749  0.87004423  0.68333333  1.0
  P  P7767  1  0.01202749  0.99504423  0.68333333  1.0
  P  P7768  1  0.11202749  0.12004423  0.68333333  1.0
  P  P7769  1  0.11202749  0.24504423  0.68333333  1.0
  P  P7770  1  0.11202749  0.37004423  0.68333333  1.0
  P  P7771  1  0.11202749  0.49504423  0.68333333  1.0
  P  P7772  1  0.11202749  0.62004423  0.68333333  1.0
  P  P7773  1  0.11202749  0.74504423  0.68333333  1.0
  P  P7774  1  0.11202749  0.87004423  0.68333333  1.0
  P  P7775  1  0.11202749  0.99504423  0.68333333  1.0
  P  P7776  1  0.21202749  0.12004423  0.68333333  1.0
  P  P7777  1  0.21202749  0.24504423  0.68333333  1.0
  P  P7778  1  0.21202749  0.37004423  0.68333333  1.0
  P  P7779  1  0.21202749  0.49504423  0.68333333  1.0
  P  P7780  1  0.21202749  0.62004423  0.68333333  1.0
  P  P7781  1  0.21202749  0.74504423  0.68333333  1.0
  P  P7782  1  0.21202749  0.87004423  0.68333333  1.0
  P  P7783  1  0.21202749  0.99504423  0.68333333  1.0
  P  P7784  1  0.31202749  0.12004423  0.68333333  1.0
  P  P7785  1  0.31202749  0.24504423  0.68333333  1.0
  P  P7786  1  0.31202749  0.37004423  0.68333333  1.0
  P  P7787  1  0.31202749  0.49504423  0.68333333  1.0
  P  P7788  1  0.31202749  0.62004423  0.68333333  1.0
  P  P7789  1  0.31202749  0.74504423  0.68333333  1.0
  P  P7790  1  0.31202749  0.87004423  0.68333333  1.0
  P  P7791  1  0.31202749  0.99504423  0.68333333  1.0
  P  P7792  1  0.41202749  0.12004423  0.68333333  1.0
  P  P7793  1  0.41202749  0.24504423  0.68333333  1.0
  P  P7794  1  0.41202749  0.37004423  0.68333333  1.0
  P  P7795  1  0.41202749  0.49504423  0.68333333  1.0
  P  P7796  1  0.41202749  0.62004423  0.68333333  1.0
  P  P7797  1  0.41202749  0.74504423  0.68333333  1.0
  P  P7798  1  0.41202749  0.87004423  0.68333333  1.0
  P  P7799  1  0.41202749  0.99504423  0.68333333  1.0
  P  P7800  1  0.51202749  0.12004423  0.68333333  1.0
  P  P7801  1  0.51202749  0.24504423  0.68333333  1.0
  P  P7802  1  0.51202749  0.37004423  0.68333333  1.0
  P  P7803  1  0.51202749  0.49504423  0.68333333  1.0
  P  P7804  1  0.51202749  0.62004423  0.68333333  1.0
  P  P7805  1  0.51202749  0.74504423  0.68333333  1.0
  P  P7806  1  0.51202749  0.87004423  0.68333333  1.0
  P  P7807  1  0.51202749  0.99504423  0.68333333  1.0
  P  P7808  1  0.61202749  0.12004423  0.68333333  1.0
  P  P7809  1  0.61202749  0.24504423  0.68333333  1.0
  P  P7810  1  0.61202749  0.37004423  0.68333333  1.0
  P  P7811  1  0.61202749  0.49504423  0.68333333  1.0
  P  P7812  1  0.61202749  0.62004423  0.68333333  1.0
  P  P7813  1  0.61202749  0.74504423  0.68333333  1.0
  P  P7814  1  0.61202749  0.87004423  0.68333333  1.0
  P  P7815  1  0.61202749  0.99504423  0.68333333  1.0
  P  P7816  1  0.71202749  0.12004423  0.68333333  1.0
  P  P7817  1  0.71202749  0.24504423  0.68333333  1.0
  P  P7818  1  0.71202749  0.37004423  0.68333333  1.0
  P  P7819  1  0.71202749  0.49504423  0.68333333  1.0
  P  P7820  1  0.71202749  0.62004423  0.68333333  1.0
  P  P7821  1  0.71202749  0.74504423  0.68333333  1.0
  P  P7822  1  0.71202749  0.87004423  0.68333333  1.0
  P  P7823  1  0.71202749  0.99504423  0.68333333  1.0
  P  P7824  1  0.81202749  0.12004423  0.68333333  1.0
  P  P7825  1  0.81202749  0.24504423  0.68333333  1.0
  P  P7826  1  0.81202749  0.37004423  0.68333333  1.0
  P  P7827  1  0.81202749  0.49504423  0.68333333  1.0
  P  P7828  1  0.81202749  0.62004423  0.68333333  1.0
  P  P7829  1  0.81202749  0.74504423  0.68333333  1.0
  P  P7830  1  0.81202749  0.87004423  0.68333333  1.0
  P  P7831  1  0.81202749  0.99504423  0.68333333  1.0
  P  P7832  1  0.91202749  0.12004423  0.68333333  1.0
  P  P7833  1  0.91202749  0.24504423  0.68333333  1.0
  P  P7834  1  0.91202749  0.37004423  0.68333333  1.0
  P  P7835  1  0.91202749  0.49504423  0.68333333  1.0
  P  P7836  1  0.91202749  0.62004423  0.68333333  1.0
  P  P7837  1  0.91202749  0.74504423  0.68333333  1.0
  P  P7838  1  0.91202749  0.87004423  0.68333333  1.0
  P  P7839  1  0.91202749  0.99504423  0.68333333  1.0
  P  P7840  1  0.03797251  0.05754423  0.71666667  1.0
  P  P7841  1  0.03797251  0.18254423  0.71666667  1.0
  P  P7842  1  0.03797251  0.30754423  0.71666667  1.0
  P  P7843  1  0.03797251  0.43254423  0.71666667  1.0
  P  P7844  1  0.03797251  0.55754423  0.71666667  1.0
  P  P7845  1  0.03797251  0.68254423  0.71666667  1.0
  P  P7846  1  0.03797251  0.80754423  0.71666667  1.0
  P  P7847  1  0.03797251  0.93254423  0.71666667  1.0
  P  P7848  1  0.13797251  0.05754423  0.71666667  1.0
  P  P7849  1  0.13797251  0.18254423  0.71666667  1.0
  P  P7850  1  0.13797251  0.30754423  0.71666667  1.0
  P  P7851  1  0.13797251  0.43254423  0.71666667  1.0
  P  P7852  1  0.13797251  0.55754423  0.71666667  1.0
  P  P7853  1  0.13797251  0.68254423  0.71666667  1.0
  P  P7854  1  0.13797251  0.80754423  0.71666667  1.0
  P  P7855  1  0.13797251  0.93254423  0.71666667  1.0
  P  P7856  1  0.23797251  0.05754423  0.71666667  1.0
  P  P7857  1  0.23797251  0.18254423  0.71666667  1.0
  P  P7858  1  0.23797251  0.30754423  0.71666667  1.0
  P  P7859  1  0.23797251  0.43254423  0.71666667  1.0
  P  P7860  1  0.23797251  0.55754423  0.71666667  1.0
  P  P7861  1  0.23797251  0.68254423  0.71666667  1.0
  P  P7862  1  0.23797251  0.80754423  0.71666667  1.0
  P  P7863  1  0.23797251  0.93254423  0.71666667  1.0
  P  P7864  1  0.33797251  0.05754423  0.71666667  1.0
  P  P7865  1  0.33797251  0.18254423  0.71666667  1.0
  P  P7866  1  0.33797251  0.30754423  0.71666667  1.0
  P  P7867  1  0.33797251  0.43254423  0.71666667  1.0
  P  P7868  1  0.33797251  0.55754423  0.71666667  1.0
  P  P7869  1  0.33797251  0.68254423  0.71666667  1.0
  P  P7870  1  0.33797251  0.80754423  0.71666667  1.0
  P  P7871  1  0.33797251  0.93254423  0.71666667  1.0
  P  P7872  1  0.43797251  0.05754423  0.71666667  1.0
  P  P7873  1  0.43797251  0.18254423  0.71666667  1.0
  P  P7874  1  0.43797251  0.30754423  0.71666667  1.0
  P  P7875  1  0.43797251  0.43254423  0.71666667  1.0
  P  P7876  1  0.43797251  0.55754423  0.71666667  1.0
  P  P7877  1  0.43797251  0.68254423  0.71666667  1.0
  P  P7878  1  0.43797251  0.80754423  0.71666667  1.0
  P  P7879  1  0.43797251  0.93254423  0.71666667  1.0
  P  P7880  1  0.53797251  0.05754423  0.71666667  1.0
  P  P7881  1  0.53797251  0.18254423  0.71666667  1.0
  P  P7882  1  0.53797251  0.30754423  0.71666667  1.0
  P  P7883  1  0.53797251  0.43254423  0.71666667  1.0
  P  P7884  1  0.53797251  0.55754423  0.71666667  1.0
  P  P7885  1  0.53797251  0.68254423  0.71666667  1.0
  P  P7886  1  0.53797251  0.80754423  0.71666667  1.0
  P  P7887  1  0.53797251  0.93254423  0.71666667  1.0
  P  P7888  1  0.63797251  0.05754423  0.71666667  1.0
  P  P7889  1  0.63797251  0.18254423  0.71666667  1.0
  P  P7890  1  0.63797251  0.30754423  0.71666667  1.0
  P  P7891  1  0.63797251  0.43254423  0.71666667  1.0
  P  P7892  1  0.63797251  0.55754423  0.71666667  1.0
  P  P7893  1  0.63797251  0.68254423  0.71666667  1.0
  P  P7894  1  0.63797251  0.80754423  0.71666667  1.0
  P  P7895  1  0.63797251  0.93254423  0.71666667  1.0
  P  P7896  1  0.73797251  0.05754423  0.71666667  1.0
  P  P7897  1  0.73797251  0.18254423  0.71666667  1.0
  P  P7898  1  0.73797251  0.30754423  0.71666667  1.0
  P  P7899  1  0.73797251  0.43254423  0.71666667  1.0
  P  P7900  1  0.73797251  0.55754423  0.71666667  1.0
  P  P7901  1  0.73797251  0.68254423  0.71666667  1.0
  P  P7902  1  0.73797251  0.80754423  0.71666667  1.0
  P  P7903  1  0.73797251  0.93254423  0.71666667  1.0
  P  P7904  1  0.83797251  0.05754423  0.71666667  1.0
  P  P7905  1  0.83797251  0.18254423  0.71666667  1.0
  P  P7906  1  0.83797251  0.30754423  0.71666667  1.0
  P  P7907  1  0.83797251  0.43254423  0.71666667  1.0
  P  P7908  1  0.83797251  0.55754423  0.71666667  1.0
  P  P7909  1  0.83797251  0.68254423  0.71666667  1.0
  P  P7910  1  0.83797251  0.80754423  0.71666667  1.0
  P  P7911  1  0.83797251  0.93254423  0.71666667  1.0
  P  P7912  1  0.93797251  0.05754423  0.71666667  1.0
  P  P7913  1  0.93797251  0.18254423  0.71666667  1.0
  P  P7914  1  0.93797251  0.30754423  0.71666667  1.0
  P  P7915  1  0.93797251  0.43254423  0.71666667  1.0
  P  P7916  1  0.93797251  0.55754423  0.71666667  1.0
  P  P7917  1  0.93797251  0.68254423  0.71666667  1.0
  P  P7918  1  0.93797251  0.80754423  0.71666667  1.0
  P  P7919  1  0.93797251  0.93254423  0.71666667  1.0
  P  P7920  1  0.06202749  0.06745577  0.68333333  1.0
  P  P7921  1  0.06202749  0.19245577  0.68333333  1.0
  P  P7922  1  0.06202749  0.31745577  0.68333333  1.0
  P  P7923  1  0.06202749  0.44245577  0.68333333  1.0
  P  P7924  1  0.06202749  0.56745577  0.68333333  1.0
  P  P7925  1  0.06202749  0.69245577  0.68333333  1.0
  P  P7926  1  0.06202749  0.81745577  0.68333333  1.0
  P  P7927  1  0.06202749  0.94245577  0.68333333  1.0
  P  P7928  1  0.16202749  0.06745577  0.68333333  1.0
  P  P7929  1  0.16202749  0.19245577  0.68333333  1.0
  P  P7930  1  0.16202749  0.31745577  0.68333333  1.0
  P  P7931  1  0.16202749  0.44245577  0.68333333  1.0
  P  P7932  1  0.16202749  0.56745577  0.68333333  1.0
  P  P7933  1  0.16202749  0.69245577  0.68333333  1.0
  P  P7934  1  0.16202749  0.81745577  0.68333333  1.0
  P  P7935  1  0.16202749  0.94245577  0.68333333  1.0
  P  P7936  1  0.26202749  0.06745577  0.68333333  1.0
  P  P7937  1  0.26202749  0.19245577  0.68333333  1.0
  P  P7938  1  0.26202749  0.31745577  0.68333333  1.0
  P  P7939  1  0.26202749  0.44245577  0.68333333  1.0
  P  P7940  1  0.26202749  0.56745577  0.68333333  1.0
  P  P7941  1  0.26202749  0.69245577  0.68333333  1.0
  P  P7942  1  0.26202749  0.81745577  0.68333333  1.0
  P  P7943  1  0.26202749  0.94245577  0.68333333  1.0
  P  P7944  1  0.36202749  0.06745577  0.68333333  1.0
  P  P7945  1  0.36202749  0.19245577  0.68333333  1.0
  P  P7946  1  0.36202749  0.31745577  0.68333333  1.0
  P  P7947  1  0.36202749  0.44245577  0.68333333  1.0
  P  P7948  1  0.36202749  0.56745577  0.68333333  1.0
  P  P7949  1  0.36202749  0.69245577  0.68333333  1.0
  P  P7950  1  0.36202749  0.81745577  0.68333333  1.0
  P  P7951  1  0.36202749  0.94245577  0.68333333  1.0
  P  P7952  1  0.46202749  0.06745577  0.68333333  1.0
  P  P7953  1  0.46202749  0.19245577  0.68333333  1.0
  P  P7954  1  0.46202749  0.31745577  0.68333333  1.0
  P  P7955  1  0.46202749  0.44245577  0.68333333  1.0
  P  P7956  1  0.46202749  0.56745577  0.68333333  1.0
  P  P7957  1  0.46202749  0.69245577  0.68333333  1.0
  P  P7958  1  0.46202749  0.81745577  0.68333333  1.0
  P  P7959  1  0.46202749  0.94245577  0.68333333  1.0
  P  P7960  1  0.56202749  0.06745577  0.68333333  1.0
  P  P7961  1  0.56202749  0.19245577  0.68333333  1.0
  P  P7962  1  0.56202749  0.31745577  0.68333333  1.0
  P  P7963  1  0.56202749  0.44245577  0.68333333  1.0
  P  P7964  1  0.56202749  0.56745577  0.68333333  1.0
  P  P7965  1  0.56202749  0.69245577  0.68333333  1.0
  P  P7966  1  0.56202749  0.81745577  0.68333333  1.0
  P  P7967  1  0.56202749  0.94245577  0.68333333  1.0
  P  P7968  1  0.66202749  0.06745577  0.68333333  1.0
  P  P7969  1  0.66202749  0.19245577  0.68333333  1.0
  P  P7970  1  0.66202749  0.31745577  0.68333333  1.0
  P  P7971  1  0.66202749  0.44245577  0.68333333  1.0
  P  P7972  1  0.66202749  0.56745577  0.68333333  1.0
  P  P7973  1  0.66202749  0.69245577  0.68333333  1.0
  P  P7974  1  0.66202749  0.81745577  0.68333333  1.0
  P  P7975  1  0.66202749  0.94245577  0.68333333  1.0
  P  P7976  1  0.76202749  0.06745577  0.68333333  1.0
  P  P7977  1  0.76202749  0.19245577  0.68333333  1.0
  P  P7978  1  0.76202749  0.31745577  0.68333333  1.0
  P  P7979  1  0.76202749  0.44245577  0.68333333  1.0
  P  P7980  1  0.76202749  0.56745577  0.68333333  1.0
  P  P7981  1  0.76202749  0.69245577  0.68333333  1.0
  P  P7982  1  0.76202749  0.81745577  0.68333333  1.0
  P  P7983  1  0.76202749  0.94245577  0.68333333  1.0
  P  P7984  1  0.86202749  0.06745577  0.68333333  1.0
  P  P7985  1  0.86202749  0.19245577  0.68333333  1.0
  P  P7986  1  0.86202749  0.31745577  0.68333333  1.0
  P  P7987  1  0.86202749  0.44245577  0.68333333  1.0
  P  P7988  1  0.86202749  0.56745577  0.68333333  1.0
  P  P7989  1  0.86202749  0.69245577  0.68333333  1.0
  P  P7990  1  0.86202749  0.81745577  0.68333333  1.0
  P  P7991  1  0.86202749  0.94245577  0.68333333  1.0
  P  P7992  1  0.96202749  0.06745577  0.68333333  1.0
  P  P7993  1  0.96202749  0.19245577  0.68333333  1.0
  P  P7994  1  0.96202749  0.31745577  0.68333333  1.0
  P  P7995  1  0.96202749  0.44245577  0.68333333  1.0
  P  P7996  1  0.96202749  0.56745577  0.68333333  1.0
  P  P7997  1  0.96202749  0.69245577  0.68333333  1.0
  P  P7998  1  0.96202749  0.81745577  0.68333333  1.0
  P  P7999  1  0.96202749  0.94245577  0.68333333  1.0
  P  P8000  1  0.05878854  0.01712191  0.75000000  1.0
  P  P8001  1  0.05878854  0.14212191  0.75000000  1.0
  P  P8002  1  0.05878854  0.26712191  0.75000000  1.0
  P  P8003  1  0.05878854  0.39212191  0.75000000  1.0
  P  P8004  1  0.05878854  0.51712191  0.75000000  1.0
  P  P8005  1  0.05878854  0.64212191  0.75000000  1.0
  P  P8006  1  0.05878854  0.76712191  0.75000000  1.0
  P  P8007  1  0.05878854  0.89212191  0.75000000  1.0
  P  P8008  1  0.15878854  0.01712191  0.75000000  1.0
  P  P8009  1  0.15878854  0.14212191  0.75000000  1.0
  P  P8010  1  0.15878854  0.26712191  0.75000000  1.0
  P  P8011  1  0.15878854  0.39212191  0.75000000  1.0
  P  P8012  1  0.15878854  0.51712191  0.75000000  1.0
  P  P8013  1  0.15878854  0.64212191  0.75000000  1.0
  P  P8014  1  0.15878854  0.76712191  0.75000000  1.0
  P  P8015  1  0.15878854  0.89212191  0.75000000  1.0
  P  P8016  1  0.25878854  0.01712191  0.75000000  1.0
  P  P8017  1  0.25878854  0.14212191  0.75000000  1.0
  P  P8018  1  0.25878854  0.26712191  0.75000000  1.0
  P  P8019  1  0.25878854  0.39212191  0.75000000  1.0
  P  P8020  1  0.25878854  0.51712191  0.75000000  1.0
  P  P8021  1  0.25878854  0.64212191  0.75000000  1.0
  P  P8022  1  0.25878854  0.76712191  0.75000000  1.0
  P  P8023  1  0.25878854  0.89212191  0.75000000  1.0
  P  P8024  1  0.35878854  0.01712191  0.75000000  1.0
  P  P8025  1  0.35878854  0.14212191  0.75000000  1.0
  P  P8026  1  0.35878854  0.26712191  0.75000000  1.0
  P  P8027  1  0.35878854  0.39212191  0.75000000  1.0
  P  P8028  1  0.35878854  0.51712191  0.75000000  1.0
  P  P8029  1  0.35878854  0.64212191  0.75000000  1.0
  P  P8030  1  0.35878854  0.76712191  0.75000000  1.0
  P  P8031  1  0.35878854  0.89212191  0.75000000  1.0
  P  P8032  1  0.45878854  0.01712191  0.75000000  1.0
  P  P8033  1  0.45878854  0.14212191  0.75000000  1.0
  P  P8034  1  0.45878854  0.26712191  0.75000000  1.0
  P  P8035  1  0.45878854  0.39212191  0.75000000  1.0
  P  P8036  1  0.45878854  0.51712191  0.75000000  1.0
  P  P8037  1  0.45878854  0.64212191  0.75000000  1.0
  P  P8038  1  0.45878854  0.76712191  0.75000000  1.0
  P  P8039  1  0.45878854  0.89212191  0.75000000  1.0
  P  P8040  1  0.55878854  0.01712191  0.75000000  1.0
  P  P8041  1  0.55878854  0.14212191  0.75000000  1.0
  P  P8042  1  0.55878854  0.26712191  0.75000000  1.0
  P  P8043  1  0.55878854  0.39212191  0.75000000  1.0
  P  P8044  1  0.55878854  0.51712191  0.75000000  1.0
  P  P8045  1  0.55878854  0.64212191  0.75000000  1.0
  P  P8046  1  0.55878854  0.76712191  0.75000000  1.0
  P  P8047  1  0.55878854  0.89212191  0.75000000  1.0
  P  P8048  1  0.65878854  0.01712191  0.75000000  1.0
  P  P8049  1  0.65878854  0.14212191  0.75000000  1.0
  P  P8050  1  0.65878854  0.26712191  0.75000000  1.0
  P  P8051  1  0.65878854  0.39212191  0.75000000  1.0
  P  P8052  1  0.65878854  0.51712191  0.75000000  1.0
  P  P8053  1  0.65878854  0.64212191  0.75000000  1.0
  P  P8054  1  0.65878854  0.76712191  0.75000000  1.0
  P  P8055  1  0.65878854  0.89212191  0.75000000  1.0
  P  P8056  1  0.75878854  0.01712191  0.75000000  1.0
  P  P8057  1  0.75878854  0.14212191  0.75000000  1.0
  P  P8058  1  0.75878854  0.26712191  0.75000000  1.0
  P  P8059  1  0.75878854  0.39212191  0.75000000  1.0
  P  P8060  1  0.75878854  0.51712191  0.75000000  1.0
  P  P8061  1  0.75878854  0.64212191  0.75000000  1.0
  P  P8062  1  0.75878854  0.76712191  0.75000000  1.0
  P  P8063  1  0.75878854  0.89212191  0.75000000  1.0
  P  P8064  1  0.85878854  0.01712191  0.75000000  1.0
  P  P8065  1  0.85878854  0.14212191  0.75000000  1.0
  P  P8066  1  0.85878854  0.26712191  0.75000000  1.0
  P  P8067  1  0.85878854  0.39212191  0.75000000  1.0
  P  P8068  1  0.85878854  0.51712191  0.75000000  1.0
  P  P8069  1  0.85878854  0.64212191  0.75000000  1.0
  P  P8070  1  0.85878854  0.76712191  0.75000000  1.0
  P  P8071  1  0.85878854  0.89212191  0.75000000  1.0
  P  P8072  1  0.95878854  0.01712191  0.75000000  1.0
  P  P8073  1  0.95878854  0.14212191  0.75000000  1.0
  P  P8074  1  0.95878854  0.26712191  0.75000000  1.0
  P  P8075  1  0.95878854  0.39212191  0.75000000  1.0
  P  P8076  1  0.95878854  0.51712191  0.75000000  1.0
  P  P8077  1  0.95878854  0.64212191  0.75000000  1.0
  P  P8078  1  0.95878854  0.76712191  0.75000000  1.0
  P  P8079  1  0.95878854  0.89212191  0.75000000  1.0
  P  P8080  1  0.04121146  0.10787809  0.78333333  1.0
  P  P8081  1  0.04121146  0.23287809  0.78333333  1.0
  P  P8082  1  0.04121146  0.35787809  0.78333333  1.0
  P  P8083  1  0.04121146  0.48287809  0.78333333  1.0
  P  P8084  1  0.04121146  0.60787809  0.78333333  1.0
  P  P8085  1  0.04121146  0.73287809  0.78333333  1.0
  P  P8086  1  0.04121146  0.85787809  0.78333333  1.0
  P  P8087  1  0.04121146  0.98287809  0.78333333  1.0
  P  P8088  1  0.14121146  0.10787809  0.78333333  1.0
  P  P8089  1  0.14121146  0.23287809  0.78333333  1.0
  P  P8090  1  0.14121146  0.35787809  0.78333333  1.0
  P  P8091  1  0.14121146  0.48287809  0.78333333  1.0
  P  P8092  1  0.14121146  0.60787809  0.78333333  1.0
  P  P8093  1  0.14121146  0.73287809  0.78333333  1.0
  P  P8094  1  0.14121146  0.85787809  0.78333333  1.0
  P  P8095  1  0.14121146  0.98287809  0.78333333  1.0
  P  P8096  1  0.24121146  0.10787809  0.78333333  1.0
  P  P8097  1  0.24121146  0.23287809  0.78333333  1.0
  P  P8098  1  0.24121146  0.35787809  0.78333333  1.0
  P  P8099  1  0.24121146  0.48287809  0.78333333  1.0
  P  P8100  1  0.24121146  0.60787809  0.78333333  1.0
  P  P8101  1  0.24121146  0.73287809  0.78333333  1.0
  P  P8102  1  0.24121146  0.85787809  0.78333333  1.0
  P  P8103  1  0.24121146  0.98287809  0.78333333  1.0
  P  P8104  1  0.34121146  0.10787809  0.78333333  1.0
  P  P8105  1  0.34121146  0.23287809  0.78333333  1.0
  P  P8106  1  0.34121146  0.35787809  0.78333333  1.0
  P  P8107  1  0.34121146  0.48287809  0.78333333  1.0
  P  P8108  1  0.34121146  0.60787809  0.78333333  1.0
  P  P8109  1  0.34121146  0.73287809  0.78333333  1.0
  P  P8110  1  0.34121146  0.85787809  0.78333333  1.0
  P  P8111  1  0.34121146  0.98287809  0.78333333  1.0
  P  P8112  1  0.44121146  0.10787809  0.78333333  1.0
  P  P8113  1  0.44121146  0.23287809  0.78333333  1.0
  P  P8114  1  0.44121146  0.35787809  0.78333333  1.0
  P  P8115  1  0.44121146  0.48287809  0.78333333  1.0
  P  P8116  1  0.44121146  0.60787809  0.78333333  1.0
  P  P8117  1  0.44121146  0.73287809  0.78333333  1.0
  P  P8118  1  0.44121146  0.85787809  0.78333333  1.0
  P  P8119  1  0.44121146  0.98287809  0.78333333  1.0
  P  P8120  1  0.54121146  0.10787809  0.78333333  1.0
  P  P8121  1  0.54121146  0.23287809  0.78333333  1.0
  P  P8122  1  0.54121146  0.35787809  0.78333333  1.0
  P  P8123  1  0.54121146  0.48287809  0.78333333  1.0
  P  P8124  1  0.54121146  0.60787809  0.78333333  1.0
  P  P8125  1  0.54121146  0.73287809  0.78333333  1.0
  P  P8126  1  0.54121146  0.85787809  0.78333333  1.0
  P  P8127  1  0.54121146  0.98287809  0.78333333  1.0
  P  P8128  1  0.64121146  0.10787809  0.78333333  1.0
  P  P8129  1  0.64121146  0.23287809  0.78333333  1.0
  P  P8130  1  0.64121146  0.35787809  0.78333333  1.0
  P  P8131  1  0.64121146  0.48287809  0.78333333  1.0
  P  P8132  1  0.64121146  0.60787809  0.78333333  1.0
  P  P8133  1  0.64121146  0.73287809  0.78333333  1.0
  P  P8134  1  0.64121146  0.85787809  0.78333333  1.0
  P  P8135  1  0.64121146  0.98287809  0.78333333  1.0
  P  P8136  1  0.74121146  0.10787809  0.78333333  1.0
  P  P8137  1  0.74121146  0.23287809  0.78333333  1.0
  P  P8138  1  0.74121146  0.35787809  0.78333333  1.0
  P  P8139  1  0.74121146  0.48287809  0.78333333  1.0
  P  P8140  1  0.74121146  0.60787809  0.78333333  1.0
  P  P8141  1  0.74121146  0.73287809  0.78333333  1.0
  P  P8142  1  0.74121146  0.85787809  0.78333333  1.0
  P  P8143  1  0.74121146  0.98287809  0.78333333  1.0
  P  P8144  1  0.84121146  0.10787809  0.78333333  1.0
  P  P8145  1  0.84121146  0.23287809  0.78333333  1.0
  P  P8146  1  0.84121146  0.35787809  0.78333333  1.0
  P  P8147  1  0.84121146  0.48287809  0.78333333  1.0
  P  P8148  1  0.84121146  0.60787809  0.78333333  1.0
  P  P8149  1  0.84121146  0.73287809  0.78333333  1.0
  P  P8150  1  0.84121146  0.85787809  0.78333333  1.0
  P  P8151  1  0.84121146  0.98287809  0.78333333  1.0
  P  P8152  1  0.94121146  0.10787809  0.78333333  1.0
  P  P8153  1  0.94121146  0.23287809  0.78333333  1.0
  P  P8154  1  0.94121146  0.35787809  0.78333333  1.0
  P  P8155  1  0.94121146  0.48287809  0.78333333  1.0
  P  P8156  1  0.94121146  0.60787809  0.78333333  1.0
  P  P8157  1  0.94121146  0.73287809  0.78333333  1.0
  P  P8158  1  0.94121146  0.85787809  0.78333333  1.0
  P  P8159  1  0.94121146  0.98287809  0.78333333  1.0
  P  P8160  1  0.00878854  0.04537809  0.75000000  1.0
  P  P8161  1  0.00878854  0.17037809  0.75000000  1.0
  P  P8162  1  0.00878854  0.29537809  0.75000000  1.0
  P  P8163  1  0.00878854  0.42037809  0.75000000  1.0
  P  P8164  1  0.00878854  0.54537809  0.75000000  1.0
  P  P8165  1  0.00878854  0.67037809  0.75000000  1.0
  P  P8166  1  0.00878854  0.79537809  0.75000000  1.0
  P  P8167  1  0.00878854  0.92037809  0.75000000  1.0
  P  P8168  1  0.10878854  0.04537809  0.75000000  1.0
  P  P8169  1  0.10878854  0.17037809  0.75000000  1.0
  P  P8170  1  0.10878854  0.29537809  0.75000000  1.0
  P  P8171  1  0.10878854  0.42037809  0.75000000  1.0
  P  P8172  1  0.10878854  0.54537809  0.75000000  1.0
  P  P8173  1  0.10878854  0.67037809  0.75000000  1.0
  P  P8174  1  0.10878854  0.79537809  0.75000000  1.0
  P  P8175  1  0.10878854  0.92037809  0.75000000  1.0
  P  P8176  1  0.20878854  0.04537809  0.75000000  1.0
  P  P8177  1  0.20878854  0.17037809  0.75000000  1.0
  P  P8178  1  0.20878854  0.29537809  0.75000000  1.0
  P  P8179  1  0.20878854  0.42037809  0.75000000  1.0
  P  P8180  1  0.20878854  0.54537809  0.75000000  1.0
  P  P8181  1  0.20878854  0.67037809  0.75000000  1.0
  P  P8182  1  0.20878854  0.79537809  0.75000000  1.0
  P  P8183  1  0.20878854  0.92037809  0.75000000  1.0
  P  P8184  1  0.30878854  0.04537809  0.75000000  1.0
  P  P8185  1  0.30878854  0.17037809  0.75000000  1.0
  P  P8186  1  0.30878854  0.29537809  0.75000000  1.0
  P  P8187  1  0.30878854  0.42037809  0.75000000  1.0
  P  P8188  1  0.30878854  0.54537809  0.75000000  1.0
  P  P8189  1  0.30878854  0.67037809  0.75000000  1.0
  P  P8190  1  0.30878854  0.79537809  0.75000000  1.0
  P  P8191  1  0.30878854  0.92037809  0.75000000  1.0
  P  P8192  1  0.40878854  0.04537809  0.75000000  1.0
  P  P8193  1  0.40878854  0.17037809  0.75000000  1.0
  P  P8194  1  0.40878854  0.29537809  0.75000000  1.0
  P  P8195  1  0.40878854  0.42037809  0.75000000  1.0
  P  P8196  1  0.40878854  0.54537809  0.75000000  1.0
  P  P8197  1  0.40878854  0.67037809  0.75000000  1.0
  P  P8198  1  0.40878854  0.79537809  0.75000000  1.0
  P  P8199  1  0.40878854  0.92037809  0.75000000  1.0
  P  P8200  1  0.50878854  0.04537809  0.75000000  1.0
  P  P8201  1  0.50878854  0.17037809  0.75000000  1.0
  P  P8202  1  0.50878854  0.29537809  0.75000000  1.0
  P  P8203  1  0.50878854  0.42037809  0.75000000  1.0
  P  P8204  1  0.50878854  0.54537809  0.75000000  1.0
  P  P8205  1  0.50878854  0.67037809  0.75000000  1.0
  P  P8206  1  0.50878854  0.79537809  0.75000000  1.0
  P  P8207  1  0.50878854  0.92037809  0.75000000  1.0
  P  P8208  1  0.60878854  0.04537809  0.75000000  1.0
  P  P8209  1  0.60878854  0.17037809  0.75000000  1.0
  P  P8210  1  0.60878854  0.29537809  0.75000000  1.0
  P  P8211  1  0.60878854  0.42037809  0.75000000  1.0
  P  P8212  1  0.60878854  0.54537809  0.75000000  1.0
  P  P8213  1  0.60878854  0.67037809  0.75000000  1.0
  P  P8214  1  0.60878854  0.79537809  0.75000000  1.0
  P  P8215  1  0.60878854  0.92037809  0.75000000  1.0
  P  P8216  1  0.70878854  0.04537809  0.75000000  1.0
  P  P8217  1  0.70878854  0.17037809  0.75000000  1.0
  P  P8218  1  0.70878854  0.29537809  0.75000000  1.0
  P  P8219  1  0.70878854  0.42037809  0.75000000  1.0
  P  P8220  1  0.70878854  0.54537809  0.75000000  1.0
  P  P8221  1  0.70878854  0.67037809  0.75000000  1.0
  P  P8222  1  0.70878854  0.79537809  0.75000000  1.0
  P  P8223  1  0.70878854  0.92037809  0.75000000  1.0
  P  P8224  1  0.80878854  0.04537809  0.75000000  1.0
  P  P8225  1  0.80878854  0.17037809  0.75000000  1.0
  P  P8226  1  0.80878854  0.29537809  0.75000000  1.0
  P  P8227  1  0.80878854  0.42037809  0.75000000  1.0
  P  P8228  1  0.80878854  0.54537809  0.75000000  1.0
  P  P8229  1  0.80878854  0.67037809  0.75000000  1.0
  P  P8230  1  0.80878854  0.79537809  0.75000000  1.0
  P  P8231  1  0.80878854  0.92037809  0.75000000  1.0
  P  P8232  1  0.90878854  0.04537809  0.75000000  1.0
  P  P8233  1  0.90878854  0.17037809  0.75000000  1.0
  P  P8234  1  0.90878854  0.29537809  0.75000000  1.0
  P  P8235  1  0.90878854  0.42037809  0.75000000  1.0
  P  P8236  1  0.90878854  0.54537809  0.75000000  1.0
  P  P8237  1  0.90878854  0.67037809  0.75000000  1.0
  P  P8238  1  0.90878854  0.79537809  0.75000000  1.0
  P  P8239  1  0.90878854  0.92037809  0.75000000  1.0
  P  P8240  1  0.09121146  0.07962191  0.78333333  1.0
  P  P8241  1  0.09121146  0.20462191  0.78333333  1.0
  P  P8242  1  0.09121146  0.32962191  0.78333333  1.0
  P  P8243  1  0.09121146  0.45462191  0.78333333  1.0
  P  P8244  1  0.09121146  0.57962191  0.78333333  1.0
  P  P8245  1  0.09121146  0.70462191  0.78333333  1.0
  P  P8246  1  0.09121146  0.82962191  0.78333333  1.0
  P  P8247  1  0.09121146  0.95462191  0.78333333  1.0
  P  P8248  1  0.19121146  0.07962191  0.78333333  1.0
  P  P8249  1  0.19121146  0.20462191  0.78333333  1.0
  P  P8250  1  0.19121146  0.32962191  0.78333333  1.0
  P  P8251  1  0.19121146  0.45462191  0.78333333  1.0
  P  P8252  1  0.19121146  0.57962191  0.78333333  1.0
  P  P8253  1  0.19121146  0.70462191  0.78333333  1.0
  P  P8254  1  0.19121146  0.82962191  0.78333333  1.0
  P  P8255  1  0.19121146  0.95462191  0.78333333  1.0
  P  P8256  1  0.29121146  0.07962191  0.78333333  1.0
  P  P8257  1  0.29121146  0.20462191  0.78333333  1.0
  P  P8258  1  0.29121146  0.32962191  0.78333333  1.0
  P  P8259  1  0.29121146  0.45462191  0.78333333  1.0
  P  P8260  1  0.29121146  0.57962191  0.78333333  1.0
  P  P8261  1  0.29121146  0.70462191  0.78333333  1.0
  P  P8262  1  0.29121146  0.82962191  0.78333333  1.0
  P  P8263  1  0.29121146  0.95462191  0.78333333  1.0
  P  P8264  1  0.39121146  0.07962191  0.78333333  1.0
  P  P8265  1  0.39121146  0.20462191  0.78333333  1.0
  P  P8266  1  0.39121146  0.32962191  0.78333333  1.0
  P  P8267  1  0.39121146  0.45462191  0.78333333  1.0
  P  P8268  1  0.39121146  0.57962191  0.78333333  1.0
  P  P8269  1  0.39121146  0.70462191  0.78333333  1.0
  P  P8270  1  0.39121146  0.82962191  0.78333333  1.0
  P  P8271  1  0.39121146  0.95462191  0.78333333  1.0
  P  P8272  1  0.49121146  0.07962191  0.78333333  1.0
  P  P8273  1  0.49121146  0.20462191  0.78333333  1.0
  P  P8274  1  0.49121146  0.32962191  0.78333333  1.0
  P  P8275  1  0.49121146  0.45462191  0.78333333  1.0
  P  P8276  1  0.49121146  0.57962191  0.78333333  1.0
  P  P8277  1  0.49121146  0.70462191  0.78333333  1.0
  P  P8278  1  0.49121146  0.82962191  0.78333333  1.0
  P  P8279  1  0.49121146  0.95462191  0.78333333  1.0
  P  P8280  1  0.59121146  0.07962191  0.78333333  1.0
  P  P8281  1  0.59121146  0.20462191  0.78333333  1.0
  P  P8282  1  0.59121146  0.32962191  0.78333333  1.0
  P  P8283  1  0.59121146  0.45462191  0.78333333  1.0
  P  P8284  1  0.59121146  0.57962191  0.78333333  1.0
  P  P8285  1  0.59121146  0.70462191  0.78333333  1.0
  P  P8286  1  0.59121146  0.82962191  0.78333333  1.0
  P  P8287  1  0.59121146  0.95462191  0.78333333  1.0
  P  P8288  1  0.69121146  0.07962191  0.78333333  1.0
  P  P8289  1  0.69121146  0.20462191  0.78333333  1.0
  P  P8290  1  0.69121146  0.32962191  0.78333333  1.0
  P  P8291  1  0.69121146  0.45462191  0.78333333  1.0
  P  P8292  1  0.69121146  0.57962191  0.78333333  1.0
  P  P8293  1  0.69121146  0.70462191  0.78333333  1.0
  P  P8294  1  0.69121146  0.82962191  0.78333333  1.0
  P  P8295  1  0.69121146  0.95462191  0.78333333  1.0
  P  P8296  1  0.79121146  0.07962191  0.78333333  1.0
  P  P8297  1  0.79121146  0.20462191  0.78333333  1.0
  P  P8298  1  0.79121146  0.32962191  0.78333333  1.0
  P  P8299  1  0.79121146  0.45462191  0.78333333  1.0
  P  P8300  1  0.79121146  0.57962191  0.78333333  1.0
  P  P8301  1  0.79121146  0.70462191  0.78333333  1.0
  P  P8302  1  0.79121146  0.82962191  0.78333333  1.0
  P  P8303  1  0.79121146  0.95462191  0.78333333  1.0
  P  P8304  1  0.89121146  0.07962191  0.78333333  1.0
  P  P8305  1  0.89121146  0.20462191  0.78333333  1.0
  P  P8306  1  0.89121146  0.32962191  0.78333333  1.0
  P  P8307  1  0.89121146  0.45462191  0.78333333  1.0
  P  P8308  1  0.89121146  0.57962191  0.78333333  1.0
  P  P8309  1  0.89121146  0.70462191  0.78333333  1.0
  P  P8310  1  0.89121146  0.82962191  0.78333333  1.0
  P  P8311  1  0.89121146  0.95462191  0.78333333  1.0
  P  P8312  1  0.99121146  0.07962191  0.78333333  1.0
  P  P8313  1  0.99121146  0.20462191  0.78333333  1.0
  P  P8314  1  0.99121146  0.32962191  0.78333333  1.0
  P  P8315  1  0.99121146  0.45462191  0.78333333  1.0
  P  P8316  1  0.99121146  0.57962191  0.78333333  1.0
  P  P8317  1  0.99121146  0.70462191  0.78333333  1.0
  P  P8318  1  0.99121146  0.82962191  0.78333333  1.0
  P  P8319  1  0.99121146  0.95462191  0.78333333  1.0
  P  P8320  1  0.08797251  0.00495577  0.78333333  1.0
  P  P8321  1  0.08797251  0.12995577  0.78333333  1.0
  P  P8322  1  0.08797251  0.25495577  0.78333333  1.0
  P  P8323  1  0.08797251  0.37995577  0.78333333  1.0
  P  P8324  1  0.08797251  0.50495577  0.78333333  1.0
  P  P8325  1  0.08797251  0.62995577  0.78333333  1.0
  P  P8326  1  0.08797251  0.75495577  0.78333333  1.0
  P  P8327  1  0.08797251  0.87995577  0.78333333  1.0
  P  P8328  1  0.18797251  0.00495577  0.78333333  1.0
  P  P8329  1  0.18797251  0.12995577  0.78333333  1.0
  P  P8330  1  0.18797251  0.25495577  0.78333333  1.0
  P  P8331  1  0.18797251  0.37995577  0.78333333  1.0
  P  P8332  1  0.18797251  0.50495577  0.78333333  1.0
  P  P8333  1  0.18797251  0.62995577  0.78333333  1.0
  P  P8334  1  0.18797251  0.75495577  0.78333333  1.0
  P  P8335  1  0.18797251  0.87995577  0.78333333  1.0
  P  P8336  1  0.28797251  0.00495577  0.78333333  1.0
  P  P8337  1  0.28797251  0.12995577  0.78333333  1.0
  P  P8338  1  0.28797251  0.25495577  0.78333333  1.0
  P  P8339  1  0.28797251  0.37995577  0.78333333  1.0
  P  P8340  1  0.28797251  0.50495577  0.78333333  1.0
  P  P8341  1  0.28797251  0.62995577  0.78333333  1.0
  P  P8342  1  0.28797251  0.75495577  0.78333333  1.0
  P  P8343  1  0.28797251  0.87995577  0.78333333  1.0
  P  P8344  1  0.38797251  0.00495577  0.78333333  1.0
  P  P8345  1  0.38797251  0.12995577  0.78333333  1.0
  P  P8346  1  0.38797251  0.25495577  0.78333333  1.0
  P  P8347  1  0.38797251  0.37995577  0.78333333  1.0
  P  P8348  1  0.38797251  0.50495577  0.78333333  1.0
  P  P8349  1  0.38797251  0.62995577  0.78333333  1.0
  P  P8350  1  0.38797251  0.75495577  0.78333333  1.0
  P  P8351  1  0.38797251  0.87995577  0.78333333  1.0
  P  P8352  1  0.48797251  0.00495577  0.78333333  1.0
  P  P8353  1  0.48797251  0.12995577  0.78333333  1.0
  P  P8354  1  0.48797251  0.25495577  0.78333333  1.0
  P  P8355  1  0.48797251  0.37995577  0.78333333  1.0
  P  P8356  1  0.48797251  0.50495577  0.78333333  1.0
  P  P8357  1  0.48797251  0.62995577  0.78333333  1.0
  P  P8358  1  0.48797251  0.75495577  0.78333333  1.0
  P  P8359  1  0.48797251  0.87995577  0.78333333  1.0
  P  P8360  1  0.58797251  0.00495577  0.78333333  1.0
  P  P8361  1  0.58797251  0.12995577  0.78333333  1.0
  P  P8362  1  0.58797251  0.25495577  0.78333333  1.0
  P  P8363  1  0.58797251  0.37995577  0.78333333  1.0
  P  P8364  1  0.58797251  0.50495577  0.78333333  1.0
  P  P8365  1  0.58797251  0.62995577  0.78333333  1.0
  P  P8366  1  0.58797251  0.75495577  0.78333333  1.0
  P  P8367  1  0.58797251  0.87995577  0.78333333  1.0
  P  P8368  1  0.68797251  0.00495577  0.78333333  1.0
  P  P8369  1  0.68797251  0.12995577  0.78333333  1.0
  P  P8370  1  0.68797251  0.25495577  0.78333333  1.0
  P  P8371  1  0.68797251  0.37995577  0.78333333  1.0
  P  P8372  1  0.68797251  0.50495577  0.78333333  1.0
  P  P8373  1  0.68797251  0.62995577  0.78333333  1.0
  P  P8374  1  0.68797251  0.75495577  0.78333333  1.0
  P  P8375  1  0.68797251  0.87995577  0.78333333  1.0
  P  P8376  1  0.78797251  0.00495577  0.78333333  1.0
  P  P8377  1  0.78797251  0.12995577  0.78333333  1.0
  P  P8378  1  0.78797251  0.25495577  0.78333333  1.0
  P  P8379  1  0.78797251  0.37995577  0.78333333  1.0
  P  P8380  1  0.78797251  0.50495577  0.78333333  1.0
  P  P8381  1  0.78797251  0.62995577  0.78333333  1.0
  P  P8382  1  0.78797251  0.75495577  0.78333333  1.0
  P  P8383  1  0.78797251  0.87995577  0.78333333  1.0
  P  P8384  1  0.88797251  0.00495577  0.78333333  1.0
  P  P8385  1  0.88797251  0.12995577  0.78333333  1.0
  P  P8386  1  0.88797251  0.25495577  0.78333333  1.0
  P  P8387  1  0.88797251  0.37995577  0.78333333  1.0
  P  P8388  1  0.88797251  0.50495577  0.78333333  1.0
  P  P8389  1  0.88797251  0.62995577  0.78333333  1.0
  P  P8390  1  0.88797251  0.75495577  0.78333333  1.0
  P  P8391  1  0.88797251  0.87995577  0.78333333  1.0
  P  P8392  1  0.98797251  0.00495577  0.78333333  1.0
  P  P8393  1  0.98797251  0.12995577  0.78333333  1.0
  P  P8394  1  0.98797251  0.25495577  0.78333333  1.0
  P  P8395  1  0.98797251  0.37995577  0.78333333  1.0
  P  P8396  1  0.98797251  0.50495577  0.78333333  1.0
  P  P8397  1  0.98797251  0.62995577  0.78333333  1.0
  P  P8398  1  0.98797251  0.75495577  0.78333333  1.0
  P  P8399  1  0.98797251  0.87995577  0.78333333  1.0
  P  P8400  1  0.01202749  0.12004423  0.75000000  1.0
  P  P8401  1  0.01202749  0.24504423  0.75000000  1.0
  P  P8402  1  0.01202749  0.37004423  0.75000000  1.0
  P  P8403  1  0.01202749  0.49504423  0.75000000  1.0
  P  P8404  1  0.01202749  0.62004423  0.75000000  1.0
  P  P8405  1  0.01202749  0.74504423  0.75000000  1.0
  P  P8406  1  0.01202749  0.87004423  0.75000000  1.0
  P  P8407  1  0.01202749  0.99504423  0.75000000  1.0
  P  P8408  1  0.11202749  0.12004423  0.75000000  1.0
  P  P8409  1  0.11202749  0.24504423  0.75000000  1.0
  P  P8410  1  0.11202749  0.37004423  0.75000000  1.0
  P  P8411  1  0.11202749  0.49504423  0.75000000  1.0
  P  P8412  1  0.11202749  0.62004423  0.75000000  1.0
  P  P8413  1  0.11202749  0.74504423  0.75000000  1.0
  P  P8414  1  0.11202749  0.87004423  0.75000000  1.0
  P  P8415  1  0.11202749  0.99504423  0.75000000  1.0
  P  P8416  1  0.21202749  0.12004423  0.75000000  1.0
  P  P8417  1  0.21202749  0.24504423  0.75000000  1.0
  P  P8418  1  0.21202749  0.37004423  0.75000000  1.0
  P  P8419  1  0.21202749  0.49504423  0.75000000  1.0
  P  P8420  1  0.21202749  0.62004423  0.75000000  1.0
  P  P8421  1  0.21202749  0.74504423  0.75000000  1.0
  P  P8422  1  0.21202749  0.87004423  0.75000000  1.0
  P  P8423  1  0.21202749  0.99504423  0.75000000  1.0
  P  P8424  1  0.31202749  0.12004423  0.75000000  1.0
  P  P8425  1  0.31202749  0.24504423  0.75000000  1.0
  P  P8426  1  0.31202749  0.37004423  0.75000000  1.0
  P  P8427  1  0.31202749  0.49504423  0.75000000  1.0
  P  P8428  1  0.31202749  0.62004423  0.75000000  1.0
  P  P8429  1  0.31202749  0.74504423  0.75000000  1.0
  P  P8430  1  0.31202749  0.87004423  0.75000000  1.0
  P  P8431  1  0.31202749  0.99504423  0.75000000  1.0
  P  P8432  1  0.41202749  0.12004423  0.75000000  1.0
  P  P8433  1  0.41202749  0.24504423  0.75000000  1.0
  P  P8434  1  0.41202749  0.37004423  0.75000000  1.0
  P  P8435  1  0.41202749  0.49504423  0.75000000  1.0
  P  P8436  1  0.41202749  0.62004423  0.75000000  1.0
  P  P8437  1  0.41202749  0.74504423  0.75000000  1.0
  P  P8438  1  0.41202749  0.87004423  0.75000000  1.0
  P  P8439  1  0.41202749  0.99504423  0.75000000  1.0
  P  P8440  1  0.51202749  0.12004423  0.75000000  1.0
  P  P8441  1  0.51202749  0.24504423  0.75000000  1.0
  P  P8442  1  0.51202749  0.37004423  0.75000000  1.0
  P  P8443  1  0.51202749  0.49504423  0.75000000  1.0
  P  P8444  1  0.51202749  0.62004423  0.75000000  1.0
  P  P8445  1  0.51202749  0.74504423  0.75000000  1.0
  P  P8446  1  0.51202749  0.87004423  0.75000000  1.0
  P  P8447  1  0.51202749  0.99504423  0.75000000  1.0
  P  P8448  1  0.61202749  0.12004423  0.75000000  1.0
  P  P8449  1  0.61202749  0.24504423  0.75000000  1.0
  P  P8450  1  0.61202749  0.37004423  0.75000000  1.0
  P  P8451  1  0.61202749  0.49504423  0.75000000  1.0
  P  P8452  1  0.61202749  0.62004423  0.75000000  1.0
  P  P8453  1  0.61202749  0.74504423  0.75000000  1.0
  P  P8454  1  0.61202749  0.87004423  0.75000000  1.0
  P  P8455  1  0.61202749  0.99504423  0.75000000  1.0
  P  P8456  1  0.71202749  0.12004423  0.75000000  1.0
  P  P8457  1  0.71202749  0.24504423  0.75000000  1.0
  P  P8458  1  0.71202749  0.37004423  0.75000000  1.0
  P  P8459  1  0.71202749  0.49504423  0.75000000  1.0
  P  P8460  1  0.71202749  0.62004423  0.75000000  1.0
  P  P8461  1  0.71202749  0.74504423  0.75000000  1.0
  P  P8462  1  0.71202749  0.87004423  0.75000000  1.0
  P  P8463  1  0.71202749  0.99504423  0.75000000  1.0
  P  P8464  1  0.81202749  0.12004423  0.75000000  1.0
  P  P8465  1  0.81202749  0.24504423  0.75000000  1.0
  P  P8466  1  0.81202749  0.37004423  0.75000000  1.0
  P  P8467  1  0.81202749  0.49504423  0.75000000  1.0
  P  P8468  1  0.81202749  0.62004423  0.75000000  1.0
  P  P8469  1  0.81202749  0.74504423  0.75000000  1.0
  P  P8470  1  0.81202749  0.87004423  0.75000000  1.0
  P  P8471  1  0.81202749  0.99504423  0.75000000  1.0
  P  P8472  1  0.91202749  0.12004423  0.75000000  1.0
  P  P8473  1  0.91202749  0.24504423  0.75000000  1.0
  P  P8474  1  0.91202749  0.37004423  0.75000000  1.0
  P  P8475  1  0.91202749  0.49504423  0.75000000  1.0
  P  P8476  1  0.91202749  0.62004423  0.75000000  1.0
  P  P8477  1  0.91202749  0.74504423  0.75000000  1.0
  P  P8478  1  0.91202749  0.87004423  0.75000000  1.0
  P  P8479  1  0.91202749  0.99504423  0.75000000  1.0
  P  P8480  1  0.03797251  0.05754423  0.78333333  1.0
  P  P8481  1  0.03797251  0.18254423  0.78333333  1.0
  P  P8482  1  0.03797251  0.30754423  0.78333333  1.0
  P  P8483  1  0.03797251  0.43254423  0.78333333  1.0
  P  P8484  1  0.03797251  0.55754423  0.78333333  1.0
  P  P8485  1  0.03797251  0.68254423  0.78333333  1.0
  P  P8486  1  0.03797251  0.80754423  0.78333333  1.0
  P  P8487  1  0.03797251  0.93254423  0.78333333  1.0
  P  P8488  1  0.13797251  0.05754423  0.78333333  1.0
  P  P8489  1  0.13797251  0.18254423  0.78333333  1.0
  P  P8490  1  0.13797251  0.30754423  0.78333333  1.0
  P  P8491  1  0.13797251  0.43254423  0.78333333  1.0
  P  P8492  1  0.13797251  0.55754423  0.78333333  1.0
  P  P8493  1  0.13797251  0.68254423  0.78333333  1.0
  P  P8494  1  0.13797251  0.80754423  0.78333333  1.0
  P  P8495  1  0.13797251  0.93254423  0.78333333  1.0
  P  P8496  1  0.23797251  0.05754423  0.78333333  1.0
  P  P8497  1  0.23797251  0.18254423  0.78333333  1.0
  P  P8498  1  0.23797251  0.30754423  0.78333333  1.0
  P  P8499  1  0.23797251  0.43254423  0.78333333  1.0
  P  P8500  1  0.23797251  0.55754423  0.78333333  1.0
  P  P8501  1  0.23797251  0.68254423  0.78333333  1.0
  P  P8502  1  0.23797251  0.80754423  0.78333333  1.0
  P  P8503  1  0.23797251  0.93254423  0.78333333  1.0
  P  P8504  1  0.33797251  0.05754423  0.78333333  1.0
  P  P8505  1  0.33797251  0.18254423  0.78333333  1.0
  P  P8506  1  0.33797251  0.30754423  0.78333333  1.0
  P  P8507  1  0.33797251  0.43254423  0.78333333  1.0
  P  P8508  1  0.33797251  0.55754423  0.78333333  1.0
  P  P8509  1  0.33797251  0.68254423  0.78333333  1.0
  P  P8510  1  0.33797251  0.80754423  0.78333333  1.0
  P  P8511  1  0.33797251  0.93254423  0.78333333  1.0
  P  P8512  1  0.43797251  0.05754423  0.78333333  1.0
  P  P8513  1  0.43797251  0.18254423  0.78333333  1.0
  P  P8514  1  0.43797251  0.30754423  0.78333333  1.0
  P  P8515  1  0.43797251  0.43254423  0.78333333  1.0
  P  P8516  1  0.43797251  0.55754423  0.78333333  1.0
  P  P8517  1  0.43797251  0.68254423  0.78333333  1.0
  P  P8518  1  0.43797251  0.80754423  0.78333333  1.0
  P  P8519  1  0.43797251  0.93254423  0.78333333  1.0
  P  P8520  1  0.53797251  0.05754423  0.78333333  1.0
  P  P8521  1  0.53797251  0.18254423  0.78333333  1.0
  P  P8522  1  0.53797251  0.30754423  0.78333333  1.0
  P  P8523  1  0.53797251  0.43254423  0.78333333  1.0
  P  P8524  1  0.53797251  0.55754423  0.78333333  1.0
  P  P8525  1  0.53797251  0.68254423  0.78333333  1.0
  P  P8526  1  0.53797251  0.80754423  0.78333333  1.0
  P  P8527  1  0.53797251  0.93254423  0.78333333  1.0
  P  P8528  1  0.63797251  0.05754423  0.78333333  1.0
  P  P8529  1  0.63797251  0.18254423  0.78333333  1.0
  P  P8530  1  0.63797251  0.30754423  0.78333333  1.0
  P  P8531  1  0.63797251  0.43254423  0.78333333  1.0
  P  P8532  1  0.63797251  0.55754423  0.78333333  1.0
  P  P8533  1  0.63797251  0.68254423  0.78333333  1.0
  P  P8534  1  0.63797251  0.80754423  0.78333333  1.0
  P  P8535  1  0.63797251  0.93254423  0.78333333  1.0
  P  P8536  1  0.73797251  0.05754423  0.78333333  1.0
  P  P8537  1  0.73797251  0.18254423  0.78333333  1.0
  P  P8538  1  0.73797251  0.30754423  0.78333333  1.0
  P  P8539  1  0.73797251  0.43254423  0.78333333  1.0
  P  P8540  1  0.73797251  0.55754423  0.78333333  1.0
  P  P8541  1  0.73797251  0.68254423  0.78333333  1.0
  P  P8542  1  0.73797251  0.80754423  0.78333333  1.0
  P  P8543  1  0.73797251  0.93254423  0.78333333  1.0
  P  P8544  1  0.83797251  0.05754423  0.78333333  1.0
  P  P8545  1  0.83797251  0.18254423  0.78333333  1.0
  P  P8546  1  0.83797251  0.30754423  0.78333333  1.0
  P  P8547  1  0.83797251  0.43254423  0.78333333  1.0
  P  P8548  1  0.83797251  0.55754423  0.78333333  1.0
  P  P8549  1  0.83797251  0.68254423  0.78333333  1.0
  P  P8550  1  0.83797251  0.80754423  0.78333333  1.0
  P  P8551  1  0.83797251  0.93254423  0.78333333  1.0
  P  P8552  1  0.93797251  0.05754423  0.78333333  1.0
  P  P8553  1  0.93797251  0.18254423  0.78333333  1.0
  P  P8554  1  0.93797251  0.30754423  0.78333333  1.0
  P  P8555  1  0.93797251  0.43254423  0.78333333  1.0
  P  P8556  1  0.93797251  0.55754423  0.78333333  1.0
  P  P8557  1  0.93797251  0.68254423  0.78333333  1.0
  P  P8558  1  0.93797251  0.80754423  0.78333333  1.0
  P  P8559  1  0.93797251  0.93254423  0.78333333  1.0
  P  P8560  1  0.06202749  0.06745577  0.75000000  1.0
  P  P8561  1  0.06202749  0.19245577  0.75000000  1.0
  P  P8562  1  0.06202749  0.31745577  0.75000000  1.0
  P  P8563  1  0.06202749  0.44245577  0.75000000  1.0
  P  P8564  1  0.06202749  0.56745577  0.75000000  1.0
  P  P8565  1  0.06202749  0.69245577  0.75000000  1.0
  P  P8566  1  0.06202749  0.81745577  0.75000000  1.0
  P  P8567  1  0.06202749  0.94245577  0.75000000  1.0
  P  P8568  1  0.16202749  0.06745577  0.75000000  1.0
  P  P8569  1  0.16202749  0.19245577  0.75000000  1.0
  P  P8570  1  0.16202749  0.31745577  0.75000000  1.0
  P  P8571  1  0.16202749  0.44245577  0.75000000  1.0
  P  P8572  1  0.16202749  0.56745577  0.75000000  1.0
  P  P8573  1  0.16202749  0.69245577  0.75000000  1.0
  P  P8574  1  0.16202749  0.81745577  0.75000000  1.0
  P  P8575  1  0.16202749  0.94245577  0.75000000  1.0
  P  P8576  1  0.26202749  0.06745577  0.75000000  1.0
  P  P8577  1  0.26202749  0.19245577  0.75000000  1.0
  P  P8578  1  0.26202749  0.31745577  0.75000000  1.0
  P  P8579  1  0.26202749  0.44245577  0.75000000  1.0
  P  P8580  1  0.26202749  0.56745577  0.75000000  1.0
  P  P8581  1  0.26202749  0.69245577  0.75000000  1.0
  P  P8582  1  0.26202749  0.81745577  0.75000000  1.0
  P  P8583  1  0.26202749  0.94245577  0.75000000  1.0
  P  P8584  1  0.36202749  0.06745577  0.75000000  1.0
  P  P8585  1  0.36202749  0.19245577  0.75000000  1.0
  P  P8586  1  0.36202749  0.31745577  0.75000000  1.0
  P  P8587  1  0.36202749  0.44245577  0.75000000  1.0
  P  P8588  1  0.36202749  0.56745577  0.75000000  1.0
  P  P8589  1  0.36202749  0.69245577  0.75000000  1.0
  P  P8590  1  0.36202749  0.81745577  0.75000000  1.0
  P  P8591  1  0.36202749  0.94245577  0.75000000  1.0
  P  P8592  1  0.46202749  0.06745577  0.75000000  1.0
  P  P8593  1  0.46202749  0.19245577  0.75000000  1.0
  P  P8594  1  0.46202749  0.31745577  0.75000000  1.0
  P  P8595  1  0.46202749  0.44245577  0.75000000  1.0
  P  P8596  1  0.46202749  0.56745577  0.75000000  1.0
  P  P8597  1  0.46202749  0.69245577  0.75000000  1.0
  P  P8598  1  0.46202749  0.81745577  0.75000000  1.0
  P  P8599  1  0.46202749  0.94245577  0.75000000  1.0
  P  P8600  1  0.56202749  0.06745577  0.75000000  1.0
  P  P8601  1  0.56202749  0.19245577  0.75000000  1.0
  P  P8602  1  0.56202749  0.31745577  0.75000000  1.0
  P  P8603  1  0.56202749  0.44245577  0.75000000  1.0
  P  P8604  1  0.56202749  0.56745577  0.75000000  1.0
  P  P8605  1  0.56202749  0.69245577  0.75000000  1.0
  P  P8606  1  0.56202749  0.81745577  0.75000000  1.0
  P  P8607  1  0.56202749  0.94245577  0.75000000  1.0
  P  P8608  1  0.66202749  0.06745577  0.75000000  1.0
  P  P8609  1  0.66202749  0.19245577  0.75000000  1.0
  P  P8610  1  0.66202749  0.31745577  0.75000000  1.0
  P  P8611  1  0.66202749  0.44245577  0.75000000  1.0
  P  P8612  1  0.66202749  0.56745577  0.75000000  1.0
  P  P8613  1  0.66202749  0.69245577  0.75000000  1.0
  P  P8614  1  0.66202749  0.81745577  0.75000000  1.0
  P  P8615  1  0.66202749  0.94245577  0.75000000  1.0
  P  P8616  1  0.76202749  0.06745577  0.75000000  1.0
  P  P8617  1  0.76202749  0.19245577  0.75000000  1.0
  P  P8618  1  0.76202749  0.31745577  0.75000000  1.0
  P  P8619  1  0.76202749  0.44245577  0.75000000  1.0
  P  P8620  1  0.76202749  0.56745577  0.75000000  1.0
  P  P8621  1  0.76202749  0.69245577  0.75000000  1.0
  P  P8622  1  0.76202749  0.81745577  0.75000000  1.0
  P  P8623  1  0.76202749  0.94245577  0.75000000  1.0
  P  P8624  1  0.86202749  0.06745577  0.75000000  1.0
  P  P8625  1  0.86202749  0.19245577  0.75000000  1.0
  P  P8626  1  0.86202749  0.31745577  0.75000000  1.0
  P  P8627  1  0.86202749  0.44245577  0.75000000  1.0
  P  P8628  1  0.86202749  0.56745577  0.75000000  1.0
  P  P8629  1  0.86202749  0.69245577  0.75000000  1.0
  P  P8630  1  0.86202749  0.81745577  0.75000000  1.0
  P  P8631  1  0.86202749  0.94245577  0.75000000  1.0
  P  P8632  1  0.96202749  0.06745577  0.75000000  1.0
  P  P8633  1  0.96202749  0.19245577  0.75000000  1.0
  P  P8634  1  0.96202749  0.31745577  0.75000000  1.0
  P  P8635  1  0.96202749  0.44245577  0.75000000  1.0
  P  P8636  1  0.96202749  0.56745577  0.75000000  1.0
  P  P8637  1  0.96202749  0.69245577  0.75000000  1.0
  P  P8638  1  0.96202749  0.81745577  0.75000000  1.0
  P  P8639  1  0.96202749  0.94245577  0.75000000  1.0
