# generated using pymatgen
data_Ti8P15
_symmetry_space_group_name_H-M   'P 1'
_cell_length_a   63.18331892
_cell_length_b   62.42379473
_cell_length_c   58.35540207
_cell_angle_alpha   86.52173603
_cell_angle_beta   87.77483463
_cell_angle_gamma   79.68223458
_symmetry_Int_Tables_number   1
_chemical_formula_structural   Ti8P15
_chemical_formula_sum   'Ti3024 P5670'
_cell_volume   225931.43737582
_cell_formula_units_Z   378
loop_
 _symmetry_equiv_pos_site_id
 _symmetry_equiv_pos_as_xyz
  1  'x, y, z'
loop_
 _atom_site_type_symbol
 _atom_site_label
 _atom_site_symmetry_multiplicity
 _atom_site_fract_x
 _atom_site_fract_y
 _atom_site_fract_z
 _atom_site_occupancy
  Ti  Ti0  1  0.05825544  0.11028415  0.26856329  1.0
  Ti  Ti1  1  0.05825544  0.25314130  0.26856329  1.0
  Ti  Ti2  1  0.05825544  0.39599844  0.26856329  1.0
  Ti  Ti3  1  0.05825544  0.53885558  0.26856329  1.0
  Ti  Ti4  1  0.05825544  0.68171273  0.26856329  1.0
  Ti  Ti5  1  0.05825544  0.82456987  0.26856329  1.0
  Ti  Ti6  1  0.05825544  0.96742701  0.26856329  1.0
  Ti  Ti7  1  0.16936655  0.11028415  0.26856329  1.0
  Ti  Ti8  1  0.16936655  0.25314130  0.26856329  1.0
  Ti  Ti9  1  0.16936655  0.39599844  0.26856329  1.0
  Ti  Ti10  1  0.16936655  0.53885558  0.26856329  1.0
  Ti  Ti11  1  0.16936655  0.68171273  0.26856329  1.0
  Ti  Ti12  1  0.16936655  0.82456987  0.26856329  1.0
  Ti  Ti13  1  0.16936655  0.96742701  0.26856329  1.0
  Ti  Ti14  1  0.28047766  0.11028415  0.26856329  1.0
  Ti  Ti15  1  0.28047766  0.25314130  0.26856329  1.0
  Ti  Ti16  1  0.28047766  0.39599844  0.26856329  1.0
  Ti  Ti17  1  0.28047766  0.53885558  0.26856329  1.0
  Ti  Ti18  1  0.28047766  0.68171273  0.26856329  1.0
  Ti  Ti19  1  0.28047766  0.82456987  0.26856329  1.0
  Ti  Ti20  1  0.28047766  0.96742701  0.26856329  1.0
  Ti  Ti21  1  0.39158877  0.11028415  0.26856329  1.0
  Ti  Ti22  1  0.39158877  0.25314130  0.26856329  1.0
  Ti  Ti23  1  0.39158877  0.39599844  0.26856329  1.0
  Ti  Ti24  1  0.39158877  0.53885558  0.26856329  1.0
  Ti  Ti25  1  0.39158877  0.68171273  0.26856329  1.0
  Ti  Ti26  1  0.39158877  0.82456987  0.26856329  1.0
  Ti  Ti27  1  0.39158877  0.96742701  0.26856329  1.0
  Ti  Ti28  1  0.50269989  0.11028415  0.26856329  1.0
  Ti  Ti29  1  0.50269989  0.25314130  0.26856329  1.0
  Ti  Ti30  1  0.50269989  0.39599844  0.26856329  1.0
  Ti  Ti31  1  0.50269989  0.53885558  0.26856329  1.0
  Ti  Ti32  1  0.50269989  0.68171273  0.26856329  1.0
  Ti  Ti33  1  0.50269989  0.82456987  0.26856329  1.0
  Ti  Ti34  1  0.50269989  0.96742701  0.26856329  1.0
  Ti  Ti35  1  0.61381100  0.11028415  0.26856329  1.0
  Ti  Ti36  1  0.61381100  0.25314130  0.26856329  1.0
  Ti  Ti37  1  0.61381100  0.39599844  0.26856329  1.0
  Ti  Ti38  1  0.61381100  0.53885558  0.26856329  1.0
  Ti  Ti39  1  0.61381100  0.68171273  0.26856329  1.0
  Ti  Ti40  1  0.61381100  0.82456987  0.26856329  1.0
  Ti  Ti41  1  0.61381100  0.96742701  0.26856329  1.0
  Ti  Ti42  1  0.72492211  0.11028415  0.26856329  1.0
  Ti  Ti43  1  0.72492211  0.25314130  0.26856329  1.0
  Ti  Ti44  1  0.72492211  0.39599844  0.26856329  1.0
  Ti  Ti45  1  0.72492211  0.53885558  0.26856329  1.0
  Ti  Ti46  1  0.72492211  0.68171273  0.26856329  1.0
  Ti  Ti47  1  0.72492211  0.82456987  0.26856329  1.0
  Ti  Ti48  1  0.72492211  0.96742701  0.26856329  1.0
  Ti  Ti49  1  0.83603322  0.11028415  0.26856329  1.0
  Ti  Ti50  1  0.83603322  0.25314130  0.26856329  1.0
  Ti  Ti51  1  0.83603322  0.39599844  0.26856329  1.0
  Ti  Ti52  1  0.83603322  0.53885558  0.26856329  1.0
  Ti  Ti53  1  0.83603322  0.68171273  0.26856329  1.0
  Ti  Ti54  1  0.83603322  0.82456987  0.26856329  1.0
  Ti  Ti55  1  0.83603322  0.96742701  0.26856329  1.0
  Ti  Ti56  1  0.94714433  0.11028415  0.26856329  1.0
  Ti  Ti57  1  0.94714433  0.25314130  0.26856329  1.0
  Ti  Ti58  1  0.94714433  0.39599844  0.26856329  1.0
  Ti  Ti59  1  0.94714433  0.53885558  0.26856329  1.0
  Ti  Ti60  1  0.94714433  0.68171273  0.26856329  1.0
  Ti  Ti61  1  0.94714433  0.82456987  0.26856329  1.0
  Ti  Ti62  1  0.94714433  0.96742701  0.26856329  1.0
  Ti  Ti63  1  0.07941946  0.12388960  0.31618234  1.0
  Ti  Ti64  1  0.07941946  0.26674674  0.31618234  1.0
  Ti  Ti65  1  0.07941946  0.40960388  0.31618234  1.0
  Ti  Ti66  1  0.07941946  0.55246103  0.31618234  1.0
  Ti  Ti67  1  0.07941946  0.69531817  0.31618234  1.0
  Ti  Ti68  1  0.07941946  0.83817531  0.31618234  1.0
  Ti  Ti69  1  0.07941946  0.98103245  0.31618234  1.0
  Ti  Ti70  1  0.19053057  0.12388960  0.31618234  1.0
  Ti  Ti71  1  0.19053057  0.26674674  0.31618234  1.0
  Ti  Ti72  1  0.19053057  0.40960388  0.31618234  1.0
  Ti  Ti73  1  0.19053057  0.55246103  0.31618234  1.0
  Ti  Ti74  1  0.19053057  0.69531817  0.31618234  1.0
  Ti  Ti75  1  0.19053057  0.83817531  0.31618234  1.0
  Ti  Ti76  1  0.19053057  0.98103245  0.31618234  1.0
  Ti  Ti77  1  0.30164168  0.12388960  0.31618234  1.0
  Ti  Ti78  1  0.30164168  0.26674674  0.31618234  1.0
  Ti  Ti79  1  0.30164168  0.40960388  0.31618234  1.0
  Ti  Ti80  1  0.30164168  0.55246103  0.31618234  1.0
  Ti  Ti81  1  0.30164168  0.69531817  0.31618234  1.0
  Ti  Ti82  1  0.30164168  0.83817531  0.31618234  1.0
  Ti  Ti83  1  0.30164168  0.98103245  0.31618234  1.0
  Ti  Ti84  1  0.41275280  0.12388960  0.31618234  1.0
  Ti  Ti85  1  0.41275280  0.26674674  0.31618234  1.0
  Ti  Ti86  1  0.41275280  0.40960388  0.31618234  1.0
  Ti  Ti87  1  0.41275280  0.55246103  0.31618234  1.0
  Ti  Ti88  1  0.41275280  0.69531817  0.31618234  1.0
  Ti  Ti89  1  0.41275280  0.83817531  0.31618234  1.0
  Ti  Ti90  1  0.41275280  0.98103245  0.31618234  1.0
  Ti  Ti91  1  0.52386391  0.12388960  0.31618234  1.0
  Ti  Ti92  1  0.52386391  0.26674674  0.31618234  1.0
  Ti  Ti93  1  0.52386391  0.40960388  0.31618234  1.0
  Ti  Ti94  1  0.52386391  0.55246103  0.31618234  1.0
  Ti  Ti95  1  0.52386391  0.69531817  0.31618234  1.0
  Ti  Ti96  1  0.52386391  0.83817531  0.31618234  1.0
  Ti  Ti97  1  0.52386391  0.98103245  0.31618234  1.0
  Ti  Ti98  1  0.63497502  0.12388960  0.31618234  1.0
  Ti  Ti99  1  0.63497502  0.26674674  0.31618234  1.0
  Ti  Ti100  1  0.63497502  0.40960388  0.31618234  1.0
  Ti  Ti101  1  0.63497502  0.55246103  0.31618234  1.0
  Ti  Ti102  1  0.63497502  0.69531817  0.31618234  1.0
  Ti  Ti103  1  0.63497502  0.83817531  0.31618234  1.0
  Ti  Ti104  1  0.63497502  0.98103245  0.31618234  1.0
  Ti  Ti105  1  0.74608613  0.12388960  0.31618234  1.0
  Ti  Ti106  1  0.74608613  0.26674674  0.31618234  1.0
  Ti  Ti107  1  0.74608613  0.40960388  0.31618234  1.0
  Ti  Ti108  1  0.74608613  0.55246103  0.31618234  1.0
  Ti  Ti109  1  0.74608613  0.69531817  0.31618234  1.0
  Ti  Ti110  1  0.74608613  0.83817531  0.31618234  1.0
  Ti  Ti111  1  0.74608613  0.98103245  0.31618234  1.0
  Ti  Ti112  1  0.85719724  0.12388960  0.31618234  1.0
  Ti  Ti113  1  0.85719724  0.26674674  0.31618234  1.0
  Ti  Ti114  1  0.85719724  0.40960388  0.31618234  1.0
  Ti  Ti115  1  0.85719724  0.55246103  0.31618234  1.0
  Ti  Ti116  1  0.85719724  0.69531817  0.31618234  1.0
  Ti  Ti117  1  0.85719724  0.83817531  0.31618234  1.0
  Ti  Ti118  1  0.85719724  0.98103245  0.31618234  1.0
  Ti  Ti119  1  0.96830835  0.12388960  0.31618234  1.0
  Ti  Ti120  1  0.96830835  0.26674674  0.31618234  1.0
  Ti  Ti121  1  0.96830835  0.40960388  0.31618234  1.0
  Ti  Ti122  1  0.96830835  0.55246103  0.31618234  1.0
  Ti  Ti123  1  0.96830835  0.69531817  0.31618234  1.0
  Ti  Ti124  1  0.96830835  0.83817531  0.31618234  1.0
  Ti  Ti125  1  0.96830835  0.98103245  0.31618234  1.0
  Ti  Ti126  1  0.03709142  0.09667871  0.22094425  1.0
  Ti  Ti127  1  0.03709142  0.23953586  0.22094425  1.0
  Ti  Ti128  1  0.03709142  0.38239300  0.22094425  1.0
  Ti  Ti129  1  0.03709142  0.52525014  0.22094425  1.0
  Ti  Ti130  1  0.03709142  0.66810728  0.22094425  1.0
  Ti  Ti131  1  0.03709142  0.81096443  0.22094425  1.0
  Ti  Ti132  1  0.03709142  0.95382157  0.22094425  1.0
  Ti  Ti133  1  0.14820253  0.09667871  0.22094425  1.0
  Ti  Ti134  1  0.14820253  0.23953586  0.22094425  1.0
  Ti  Ti135  1  0.14820253  0.38239300  0.22094425  1.0
  Ti  Ti136  1  0.14820253  0.52525014  0.22094425  1.0
  Ti  Ti137  1  0.14820253  0.66810728  0.22094425  1.0
  Ti  Ti138  1  0.14820253  0.81096443  0.22094425  1.0
  Ti  Ti139  1  0.14820253  0.95382157  0.22094425  1.0
  Ti  Ti140  1  0.25931364  0.09667871  0.22094425  1.0
  Ti  Ti141  1  0.25931364  0.23953586  0.22094425  1.0
  Ti  Ti142  1  0.25931364  0.38239300  0.22094425  1.0
  Ti  Ti143  1  0.25931364  0.52525014  0.22094425  1.0
  Ti  Ti144  1  0.25931364  0.66810728  0.22094425  1.0
  Ti  Ti145  1  0.25931364  0.81096443  0.22094425  1.0
  Ti  Ti146  1  0.25931364  0.95382157  0.22094425  1.0
  Ti  Ti147  1  0.37042475  0.09667871  0.22094425  1.0
  Ti  Ti148  1  0.37042475  0.23953586  0.22094425  1.0
  Ti  Ti149  1  0.37042475  0.38239300  0.22094425  1.0
  Ti  Ti150  1  0.37042475  0.52525014  0.22094425  1.0
  Ti  Ti151  1  0.37042475  0.66810728  0.22094425  1.0
  Ti  Ti152  1  0.37042475  0.81096443  0.22094425  1.0
  Ti  Ti153  1  0.37042475  0.95382157  0.22094425  1.0
  Ti  Ti154  1  0.48153586  0.09667871  0.22094425  1.0
  Ti  Ti155  1  0.48153586  0.23953586  0.22094425  1.0
  Ti  Ti156  1  0.48153586  0.38239300  0.22094425  1.0
  Ti  Ti157  1  0.48153586  0.52525014  0.22094425  1.0
  Ti  Ti158  1  0.48153586  0.66810728  0.22094425  1.0
  Ti  Ti159  1  0.48153586  0.81096443  0.22094425  1.0
  Ti  Ti160  1  0.48153586  0.95382157  0.22094425  1.0
  Ti  Ti161  1  0.59264698  0.09667871  0.22094425  1.0
  Ti  Ti162  1  0.59264698  0.23953586  0.22094425  1.0
  Ti  Ti163  1  0.59264698  0.38239300  0.22094425  1.0
  Ti  Ti164  1  0.59264698  0.52525014  0.22094425  1.0
  Ti  Ti165  1  0.59264698  0.66810728  0.22094425  1.0
  Ti  Ti166  1  0.59264698  0.81096443  0.22094425  1.0
  Ti  Ti167  1  0.59264698  0.95382157  0.22094425  1.0
  Ti  Ti168  1  0.70375809  0.09667871  0.22094425  1.0
  Ti  Ti169  1  0.70375809  0.23953586  0.22094425  1.0
  Ti  Ti170  1  0.70375809  0.38239300  0.22094425  1.0
  Ti  Ti171  1  0.70375809  0.52525014  0.22094425  1.0
  Ti  Ti172  1  0.70375809  0.66810728  0.22094425  1.0
  Ti  Ti173  1  0.70375809  0.81096443  0.22094425  1.0
  Ti  Ti174  1  0.70375809  0.95382157  0.22094425  1.0
  Ti  Ti175  1  0.81486920  0.09667871  0.22094425  1.0
  Ti  Ti176  1  0.81486920  0.23953586  0.22094425  1.0
  Ti  Ti177  1  0.81486920  0.38239300  0.22094425  1.0
  Ti  Ti178  1  0.81486920  0.52525014  0.22094425  1.0
  Ti  Ti179  1  0.81486920  0.66810728  0.22094425  1.0
  Ti  Ti180  1  0.81486920  0.81096443  0.22094425  1.0
  Ti  Ti181  1  0.81486920  0.95382157  0.22094425  1.0
  Ti  Ti182  1  0.92598031  0.09667871  0.22094425  1.0
  Ti  Ti183  1  0.92598031  0.23953586  0.22094425  1.0
  Ti  Ti184  1  0.92598031  0.38239300  0.22094425  1.0
  Ti  Ti185  1  0.92598031  0.52525014  0.22094425  1.0
  Ti  Ti186  1  0.92598031  0.66810728  0.22094425  1.0
  Ti  Ti187  1  0.92598031  0.81096443  0.22094425  1.0
  Ti  Ti188  1  0.92598031  0.95382157  0.22094425  1.0
  Ti  Ti189  1  0.01293846  0.06678774  0.28271848  1.0
  Ti  Ti190  1  0.01293846  0.20964489  0.28271848  1.0
  Ti  Ti191  1  0.01293846  0.35250203  0.28271848  1.0
  Ti  Ti192  1  0.01293846  0.49535917  0.28271848  1.0
  Ti  Ti193  1  0.01293846  0.63821632  0.28271848  1.0
  Ti  Ti194  1  0.01293846  0.78107346  0.28271848  1.0
  Ti  Ti195  1  0.01293846  0.92393060  0.28271848  1.0
  Ti  Ti196  1  0.12404957  0.06678774  0.28271848  1.0
  Ti  Ti197  1  0.12404957  0.20964489  0.28271848  1.0
  Ti  Ti198  1  0.12404957  0.35250203  0.28271848  1.0
  Ti  Ti199  1  0.12404957  0.49535917  0.28271848  1.0
  Ti  Ti200  1  0.12404957  0.63821632  0.28271848  1.0
  Ti  Ti201  1  0.12404957  0.78107346  0.28271848  1.0
  Ti  Ti202  1  0.12404957  0.92393060  0.28271848  1.0
  Ti  Ti203  1  0.23516068  0.06678774  0.28271848  1.0
  Ti  Ti204  1  0.23516068  0.20964489  0.28271848  1.0
  Ti  Ti205  1  0.23516068  0.35250203  0.28271848  1.0
  Ti  Ti206  1  0.23516068  0.49535917  0.28271848  1.0
  Ti  Ti207  1  0.23516068  0.63821632  0.28271848  1.0
  Ti  Ti208  1  0.23516068  0.78107346  0.28271848  1.0
  Ti  Ti209  1  0.23516068  0.92393060  0.28271848  1.0
  Ti  Ti210  1  0.34627179  0.06678774  0.28271848  1.0
  Ti  Ti211  1  0.34627179  0.20964489  0.28271848  1.0
  Ti  Ti212  1  0.34627179  0.35250203  0.28271848  1.0
  Ti  Ti213  1  0.34627179  0.49535917  0.28271848  1.0
  Ti  Ti214  1  0.34627179  0.63821632  0.28271848  1.0
  Ti  Ti215  1  0.34627179  0.78107346  0.28271848  1.0
  Ti  Ti216  1  0.34627179  0.92393060  0.28271848  1.0
  Ti  Ti217  1  0.45738290  0.06678774  0.28271848  1.0
  Ti  Ti218  1  0.45738290  0.20964489  0.28271848  1.0
  Ti  Ti219  1  0.45738290  0.35250203  0.28271848  1.0
  Ti  Ti220  1  0.45738290  0.49535917  0.28271848  1.0
  Ti  Ti221  1  0.45738290  0.63821632  0.28271848  1.0
  Ti  Ti222  1  0.45738290  0.78107346  0.28271848  1.0
  Ti  Ti223  1  0.45738290  0.92393060  0.28271848  1.0
  Ti  Ti224  1  0.56849401  0.06678774  0.28271848  1.0
  Ti  Ti225  1  0.56849401  0.20964489  0.28271848  1.0
  Ti  Ti226  1  0.56849401  0.35250203  0.28271848  1.0
  Ti  Ti227  1  0.56849401  0.49535917  0.28271848  1.0
  Ti  Ti228  1  0.56849401  0.63821632  0.28271848  1.0
  Ti  Ti229  1  0.56849401  0.78107346  0.28271848  1.0
  Ti  Ti230  1  0.56849401  0.92393060  0.28271848  1.0
  Ti  Ti231  1  0.67960512  0.06678774  0.28271848  1.0
  Ti  Ti232  1  0.67960512  0.20964489  0.28271848  1.0
  Ti  Ti233  1  0.67960512  0.35250203  0.28271848  1.0
  Ti  Ti234  1  0.67960512  0.49535917  0.28271848  1.0
  Ti  Ti235  1  0.67960512  0.63821632  0.28271848  1.0
  Ti  Ti236  1  0.67960512  0.78107346  0.28271848  1.0
  Ti  Ti237  1  0.67960512  0.92393060  0.28271848  1.0
  Ti  Ti238  1  0.79071623  0.06678774  0.28271848  1.0
  Ti  Ti239  1  0.79071623  0.20964489  0.28271848  1.0
  Ti  Ti240  1  0.79071623  0.35250203  0.28271848  1.0
  Ti  Ti241  1  0.79071623  0.49535917  0.28271848  1.0
  Ti  Ti242  1  0.79071623  0.63821632  0.28271848  1.0
  Ti  Ti243  1  0.79071623  0.78107346  0.28271848  1.0
  Ti  Ti244  1  0.79071623  0.92393060  0.28271848  1.0
  Ti  Ti245  1  0.90182734  0.06678774  0.28271848  1.0
  Ti  Ti246  1  0.90182734  0.20964489  0.28271848  1.0
  Ti  Ti247  1  0.90182734  0.35250203  0.28271848  1.0
  Ti  Ti248  1  0.90182734  0.49535917  0.28271848  1.0
  Ti  Ti249  1  0.90182734  0.63821632  0.28271848  1.0
  Ti  Ti250  1  0.90182734  0.78107346  0.28271848  1.0
  Ti  Ti251  1  0.90182734  0.92393060  0.28271848  1.0
  Ti  Ti252  1  0.03410248  0.08039319  0.33033752  1.0
  Ti  Ti253  1  0.03410248  0.22325033  0.33033752  1.0
  Ti  Ti254  1  0.03410248  0.36610747  0.33033752  1.0
  Ti  Ti255  1  0.03410248  0.50896461  0.33033752  1.0
  Ti  Ti256  1  0.03410248  0.65182176  0.33033752  1.0
  Ti  Ti257  1  0.03410248  0.79467890  0.33033752  1.0
  Ti  Ti258  1  0.03410248  0.93753604  0.33033752  1.0
  Ti  Ti259  1  0.14521359  0.08039319  0.33033752  1.0
  Ti  Ti260  1  0.14521359  0.22325033  0.33033752  1.0
  Ti  Ti261  1  0.14521359  0.36610747  0.33033752  1.0
  Ti  Ti262  1  0.14521359  0.50896461  0.33033752  1.0
  Ti  Ti263  1  0.14521359  0.65182176  0.33033752  1.0
  Ti  Ti264  1  0.14521359  0.79467890  0.33033752  1.0
  Ti  Ti265  1  0.14521359  0.93753604  0.33033752  1.0
  Ti  Ti266  1  0.25632470  0.08039319  0.33033752  1.0
  Ti  Ti267  1  0.25632470  0.22325033  0.33033752  1.0
  Ti  Ti268  1  0.25632470  0.36610747  0.33033752  1.0
  Ti  Ti269  1  0.25632470  0.50896461  0.33033752  1.0
  Ti  Ti270  1  0.25632470  0.65182176  0.33033752  1.0
  Ti  Ti271  1  0.25632470  0.79467890  0.33033752  1.0
  Ti  Ti272  1  0.25632470  0.93753604  0.33033752  1.0
  Ti  Ti273  1  0.36743581  0.08039319  0.33033752  1.0
  Ti  Ti274  1  0.36743581  0.22325033  0.33033752  1.0
  Ti  Ti275  1  0.36743581  0.36610747  0.33033752  1.0
  Ti  Ti276  1  0.36743581  0.50896461  0.33033752  1.0
  Ti  Ti277  1  0.36743581  0.65182176  0.33033752  1.0
  Ti  Ti278  1  0.36743581  0.79467890  0.33033752  1.0
  Ti  Ti279  1  0.36743581  0.93753604  0.33033752  1.0
  Ti  Ti280  1  0.47854692  0.08039319  0.33033752  1.0
  Ti  Ti281  1  0.47854692  0.22325033  0.33033752  1.0
  Ti  Ti282  1  0.47854692  0.36610747  0.33033752  1.0
  Ti  Ti283  1  0.47854692  0.50896461  0.33033752  1.0
  Ti  Ti284  1  0.47854692  0.65182176  0.33033752  1.0
  Ti  Ti285  1  0.47854692  0.79467890  0.33033752  1.0
  Ti  Ti286  1  0.47854692  0.93753604  0.33033752  1.0
  Ti  Ti287  1  0.58965803  0.08039319  0.33033752  1.0
  Ti  Ti288  1  0.58965803  0.22325033  0.33033752  1.0
  Ti  Ti289  1  0.58965803  0.36610747  0.33033752  1.0
  Ti  Ti290  1  0.58965803  0.50896461  0.33033752  1.0
  Ti  Ti291  1  0.58965803  0.65182176  0.33033752  1.0
  Ti  Ti292  1  0.58965803  0.79467890  0.33033752  1.0
  Ti  Ti293  1  0.58965803  0.93753604  0.33033752  1.0
  Ti  Ti294  1  0.70076914  0.08039319  0.33033752  1.0
  Ti  Ti295  1  0.70076914  0.22325033  0.33033752  1.0
  Ti  Ti296  1  0.70076914  0.36610747  0.33033752  1.0
  Ti  Ti297  1  0.70076914  0.50896461  0.33033752  1.0
  Ti  Ti298  1  0.70076914  0.65182176  0.33033752  1.0
  Ti  Ti299  1  0.70076914  0.79467890  0.33033752  1.0
  Ti  Ti300  1  0.70076914  0.93753604  0.33033752  1.0
  Ti  Ti301  1  0.81188025  0.08039319  0.33033752  1.0
  Ti  Ti302  1  0.81188025  0.22325033  0.33033752  1.0
  Ti  Ti303  1  0.81188025  0.36610747  0.33033752  1.0
  Ti  Ti304  1  0.81188025  0.50896461  0.33033752  1.0
  Ti  Ti305  1  0.81188025  0.65182176  0.33033752  1.0
  Ti  Ti306  1  0.81188025  0.79467890  0.33033752  1.0
  Ti  Ti307  1  0.81188025  0.93753604  0.33033752  1.0
  Ti  Ti308  1  0.92299137  0.08039319  0.33033752  1.0
  Ti  Ti309  1  0.92299137  0.22325033  0.33033752  1.0
  Ti  Ti310  1  0.92299137  0.36610747  0.33033752  1.0
  Ti  Ti311  1  0.92299137  0.50896461  0.33033752  1.0
  Ti  Ti312  1  0.92299137  0.65182176  0.33033752  1.0
  Ti  Ti313  1  0.92299137  0.79467890  0.33033752  1.0
  Ti  Ti314  1  0.92299137  0.93753604  0.33033752  1.0
  Ti  Ti315  1  0.10288555  0.05318230  0.23509943  1.0
  Ti  Ti316  1  0.10288555  0.19603944  0.23509943  1.0
  Ti  Ti317  1  0.10288555  0.33889659  0.23509943  1.0
  Ti  Ti318  1  0.10288555  0.48175373  0.23509943  1.0
  Ti  Ti319  1  0.10288555  0.62461087  0.23509943  1.0
  Ti  Ti320  1  0.10288555  0.76746802  0.23509943  1.0
  Ti  Ti321  1  0.10288555  0.91032516  0.23509943  1.0
  Ti  Ti322  1  0.21399666  0.05318230  0.23509943  1.0
  Ti  Ti323  1  0.21399666  0.19603944  0.23509943  1.0
  Ti  Ti324  1  0.21399666  0.33889659  0.23509943  1.0
  Ti  Ti325  1  0.21399666  0.48175373  0.23509943  1.0
  Ti  Ti326  1  0.21399666  0.62461087  0.23509943  1.0
  Ti  Ti327  1  0.21399666  0.76746802  0.23509943  1.0
  Ti  Ti328  1  0.21399666  0.91032516  0.23509943  1.0
  Ti  Ti329  1  0.32510777  0.05318230  0.23509943  1.0
  Ti  Ti330  1  0.32510777  0.19603944  0.23509943  1.0
  Ti  Ti331  1  0.32510777  0.33889659  0.23509943  1.0
  Ti  Ti332  1  0.32510777  0.48175373  0.23509943  1.0
  Ti  Ti333  1  0.32510777  0.62461087  0.23509943  1.0
  Ti  Ti334  1  0.32510777  0.76746802  0.23509943  1.0
  Ti  Ti335  1  0.32510777  0.91032516  0.23509943  1.0
  Ti  Ti336  1  0.43621888  0.05318230  0.23509943  1.0
  Ti  Ti337  1  0.43621888  0.19603944  0.23509943  1.0
  Ti  Ti338  1  0.43621888  0.33889659  0.23509943  1.0
  Ti  Ti339  1  0.43621888  0.48175373  0.23509943  1.0
  Ti  Ti340  1  0.43621888  0.62461087  0.23509943  1.0
  Ti  Ti341  1  0.43621888  0.76746802  0.23509943  1.0
  Ti  Ti342  1  0.43621888  0.91032516  0.23509943  1.0
  Ti  Ti343  1  0.54732999  0.05318230  0.23509943  1.0
  Ti  Ti344  1  0.54732999  0.19603944  0.23509943  1.0
  Ti  Ti345  1  0.54732999  0.33889659  0.23509943  1.0
  Ti  Ti346  1  0.54732999  0.48175373  0.23509943  1.0
  Ti  Ti347  1  0.54732999  0.62461087  0.23509943  1.0
  Ti  Ti348  1  0.54732999  0.76746802  0.23509943  1.0
  Ti  Ti349  1  0.54732999  0.91032516  0.23509943  1.0
  Ti  Ti350  1  0.65844110  0.05318230  0.23509943  1.0
  Ti  Ti351  1  0.65844110  0.19603944  0.23509943  1.0
  Ti  Ti352  1  0.65844110  0.33889659  0.23509943  1.0
  Ti  Ti353  1  0.65844110  0.48175373  0.23509943  1.0
  Ti  Ti354  1  0.65844110  0.62461087  0.23509943  1.0
  Ti  Ti355  1  0.65844110  0.76746802  0.23509943  1.0
  Ti  Ti356  1  0.65844110  0.91032516  0.23509943  1.0
  Ti  Ti357  1  0.76955221  0.05318230  0.23509943  1.0
  Ti  Ti358  1  0.76955221  0.19603944  0.23509943  1.0
  Ti  Ti359  1  0.76955221  0.33889659  0.23509943  1.0
  Ti  Ti360  1  0.76955221  0.48175373  0.23509943  1.0
  Ti  Ti361  1  0.76955221  0.62461087  0.23509943  1.0
  Ti  Ti362  1  0.76955221  0.76746802  0.23509943  1.0
  Ti  Ti363  1  0.76955221  0.91032516  0.23509943  1.0
  Ti  Ti364  1  0.88066332  0.05318230  0.23509943  1.0
  Ti  Ti365  1  0.88066332  0.19603944  0.23509943  1.0
  Ti  Ti366  1  0.88066332  0.33889659  0.23509943  1.0
  Ti  Ti367  1  0.88066332  0.48175373  0.23509943  1.0
  Ti  Ti368  1  0.88066332  0.62461087  0.23509943  1.0
  Ti  Ti369  1  0.88066332  0.76746802  0.23509943  1.0
  Ti  Ti370  1  0.88066332  0.91032516  0.23509943  1.0
  Ti  Ti371  1  0.99177443  0.05318230  0.23509943  1.0
  Ti  Ti372  1  0.99177443  0.19603944  0.23509943  1.0
  Ti  Ti373  1  0.99177443  0.33889659  0.23509943  1.0
  Ti  Ti374  1  0.99177443  0.48175373  0.23509943  1.0
  Ti  Ti375  1  0.99177443  0.62461087  0.23509943  1.0
  Ti  Ti376  1  0.99177443  0.76746802  0.23509943  1.0
  Ti  Ti377  1  0.99177443  0.91032516  0.23509943  1.0
  Ti  Ti378  1  0.09969005  0.12509423  0.23679116  1.0
  Ti  Ti379  1  0.09969005  0.26795137  0.23679116  1.0
  Ti  Ti380  1  0.09969005  0.41080851  0.23679116  1.0
  Ti  Ti381  1  0.09969005  0.55366565  0.23679116  1.0
  Ti  Ti382  1  0.09969005  0.69652280  0.23679116  1.0
  Ti  Ti383  1  0.09969005  0.83937994  0.23679116  1.0
  Ti  Ti384  1  0.09969005  0.98223708  0.23679116  1.0
  Ti  Ti385  1  0.21080116  0.12509423  0.23679116  1.0
  Ti  Ti386  1  0.21080116  0.26795137  0.23679116  1.0
  Ti  Ti387  1  0.21080116  0.41080851  0.23679116  1.0
  Ti  Ti388  1  0.21080116  0.55366565  0.23679116  1.0
  Ti  Ti389  1  0.21080116  0.69652280  0.23679116  1.0
  Ti  Ti390  1  0.21080116  0.83937994  0.23679116  1.0
  Ti  Ti391  1  0.21080116  0.98223708  0.23679116  1.0
  Ti  Ti392  1  0.32191227  0.12509423  0.23679116  1.0
  Ti  Ti393  1  0.32191227  0.26795137  0.23679116  1.0
  Ti  Ti394  1  0.32191227  0.41080851  0.23679116  1.0
  Ti  Ti395  1  0.32191227  0.55366565  0.23679116  1.0
  Ti  Ti396  1  0.32191227  0.69652280  0.23679116  1.0
  Ti  Ti397  1  0.32191227  0.83937994  0.23679116  1.0
  Ti  Ti398  1  0.32191227  0.98223708  0.23679116  1.0
  Ti  Ti399  1  0.43302338  0.12509423  0.23679116  1.0
  Ti  Ti400  1  0.43302338  0.26795137  0.23679116  1.0
  Ti  Ti401  1  0.43302338  0.41080851  0.23679116  1.0
  Ti  Ti402  1  0.43302338  0.55366565  0.23679116  1.0
  Ti  Ti403  1  0.43302338  0.69652280  0.23679116  1.0
  Ti  Ti404  1  0.43302338  0.83937994  0.23679116  1.0
  Ti  Ti405  1  0.43302338  0.98223708  0.23679116  1.0
  Ti  Ti406  1  0.54413449  0.12509423  0.23679116  1.0
  Ti  Ti407  1  0.54413449  0.26795137  0.23679116  1.0
  Ti  Ti408  1  0.54413449  0.41080851  0.23679116  1.0
  Ti  Ti409  1  0.54413449  0.55366565  0.23679116  1.0
  Ti  Ti410  1  0.54413449  0.69652280  0.23679116  1.0
  Ti  Ti411  1  0.54413449  0.83937994  0.23679116  1.0
  Ti  Ti412  1  0.54413449  0.98223708  0.23679116  1.0
  Ti  Ti413  1  0.65524560  0.12509423  0.23679116  1.0
  Ti  Ti414  1  0.65524560  0.26795137  0.23679116  1.0
  Ti  Ti415  1  0.65524560  0.41080851  0.23679116  1.0
  Ti  Ti416  1  0.65524560  0.55366565  0.23679116  1.0
  Ti  Ti417  1  0.65524560  0.69652280  0.23679116  1.0
  Ti  Ti418  1  0.65524560  0.83937994  0.23679116  1.0
  Ti  Ti419  1  0.65524560  0.98223708  0.23679116  1.0
  Ti  Ti420  1  0.76635672  0.12509423  0.23679116  1.0
  Ti  Ti421  1  0.76635672  0.26795137  0.23679116  1.0
  Ti  Ti422  1  0.76635672  0.41080851  0.23679116  1.0
  Ti  Ti423  1  0.76635672  0.55366565  0.23679116  1.0
  Ti  Ti424  1  0.76635672  0.69652280  0.23679116  1.0
  Ti  Ti425  1  0.76635672  0.83937994  0.23679116  1.0
  Ti  Ti426  1  0.76635672  0.98223708  0.23679116  1.0
  Ti  Ti427  1  0.87746783  0.12509423  0.23679116  1.0
  Ti  Ti428  1  0.87746783  0.26795137  0.23679116  1.0
  Ti  Ti429  1  0.87746783  0.41080851  0.23679116  1.0
  Ti  Ti430  1  0.87746783  0.55366565  0.23679116  1.0
  Ti  Ti431  1  0.87746783  0.69652280  0.23679116  1.0
  Ti  Ti432  1  0.87746783  0.83937994  0.23679116  1.0
  Ti  Ti433  1  0.87746783  0.98223708  0.23679116  1.0
  Ti  Ti434  1  0.98857894  0.12509423  0.23679116  1.0
  Ti  Ti435  1  0.98857894  0.26795137  0.23679116  1.0
  Ti  Ti436  1  0.98857894  0.41080851  0.23679116  1.0
  Ti  Ti437  1  0.98857894  0.55366565  0.23679116  1.0
  Ti  Ti438  1  0.98857894  0.69652280  0.23679116  1.0
  Ti  Ti439  1  0.98857894  0.83937994  0.23679116  1.0
  Ti  Ti440  1  0.98857894  0.98223708  0.23679116  1.0
  Ti  Ti441  1  0.00974296  0.13869967  0.28441021  1.0
  Ti  Ti442  1  0.00974296  0.28155681  0.28441021  1.0
  Ti  Ti443  1  0.00974296  0.42441395  0.28441021  1.0
  Ti  Ti444  1  0.00974296  0.56727110  0.28441021  1.0
  Ti  Ti445  1  0.00974296  0.71012824  0.28441021  1.0
  Ti  Ti446  1  0.00974296  0.85298538  0.28441021  1.0
  Ti  Ti447  1  0.00974296  0.99584252  0.28441021  1.0
  Ti  Ti448  1  0.12085407  0.13869967  0.28441021  1.0
  Ti  Ti449  1  0.12085407  0.28155681  0.28441021  1.0
  Ti  Ti450  1  0.12085407  0.42441395  0.28441021  1.0
  Ti  Ti451  1  0.12085407  0.56727110  0.28441021  1.0
  Ti  Ti452  1  0.12085407  0.71012824  0.28441021  1.0
  Ti  Ti453  1  0.12085407  0.85298538  0.28441021  1.0
  Ti  Ti454  1  0.12085407  0.99584252  0.28441021  1.0
  Ti  Ti455  1  0.23196518  0.13869967  0.28441021  1.0
  Ti  Ti456  1  0.23196518  0.28155681  0.28441021  1.0
  Ti  Ti457  1  0.23196518  0.42441395  0.28441021  1.0
  Ti  Ti458  1  0.23196518  0.56727110  0.28441021  1.0
  Ti  Ti459  1  0.23196518  0.71012824  0.28441021  1.0
  Ti  Ti460  1  0.23196518  0.85298538  0.28441021  1.0
  Ti  Ti461  1  0.23196518  0.99584252  0.28441021  1.0
  Ti  Ti462  1  0.34307629  0.13869967  0.28441021  1.0
  Ti  Ti463  1  0.34307629  0.28155681  0.28441021  1.0
  Ti  Ti464  1  0.34307629  0.42441395  0.28441021  1.0
  Ti  Ti465  1  0.34307629  0.56727110  0.28441021  1.0
  Ti  Ti466  1  0.34307629  0.71012824  0.28441021  1.0
  Ti  Ti467  1  0.34307629  0.85298538  0.28441021  1.0
  Ti  Ti468  1  0.34307629  0.99584252  0.28441021  1.0
  Ti  Ti469  1  0.45418740  0.13869967  0.28441021  1.0
  Ti  Ti470  1  0.45418740  0.28155681  0.28441021  1.0
  Ti  Ti471  1  0.45418740  0.42441395  0.28441021  1.0
  Ti  Ti472  1  0.45418740  0.56727110  0.28441021  1.0
  Ti  Ti473  1  0.45418740  0.71012824  0.28441021  1.0
  Ti  Ti474  1  0.45418740  0.85298538  0.28441021  1.0
  Ti  Ti475  1  0.45418740  0.99584252  0.28441021  1.0
  Ti  Ti476  1  0.56529851  0.13869967  0.28441021  1.0
  Ti  Ti477  1  0.56529851  0.28155681  0.28441021  1.0
  Ti  Ti478  1  0.56529851  0.42441395  0.28441021  1.0
  Ti  Ti479  1  0.56529851  0.56727110  0.28441021  1.0
  Ti  Ti480  1  0.56529851  0.71012824  0.28441021  1.0
  Ti  Ti481  1  0.56529851  0.85298538  0.28441021  1.0
  Ti  Ti482  1  0.56529851  0.99584252  0.28441021  1.0
  Ti  Ti483  1  0.67640963  0.13869967  0.28441021  1.0
  Ti  Ti484  1  0.67640963  0.28155681  0.28441021  1.0
  Ti  Ti485  1  0.67640963  0.42441395  0.28441021  1.0
  Ti  Ti486  1  0.67640963  0.56727110  0.28441021  1.0
  Ti  Ti487  1  0.67640963  0.71012824  0.28441021  1.0
  Ti  Ti488  1  0.67640963  0.85298538  0.28441021  1.0
  Ti  Ti489  1  0.67640963  0.99584252  0.28441021  1.0
  Ti  Ti490  1  0.78752074  0.13869967  0.28441021  1.0
  Ti  Ti491  1  0.78752074  0.28155681  0.28441021  1.0
  Ti  Ti492  1  0.78752074  0.42441395  0.28441021  1.0
  Ti  Ti493  1  0.78752074  0.56727110  0.28441021  1.0
  Ti  Ti494  1  0.78752074  0.71012824  0.28441021  1.0
  Ti  Ti495  1  0.78752074  0.85298538  0.28441021  1.0
  Ti  Ti496  1  0.78752074  0.99584252  0.28441021  1.0
  Ti  Ti497  1  0.89863185  0.13869967  0.28441021  1.0
  Ti  Ti498  1  0.89863185  0.28155681  0.28441021  1.0
  Ti  Ti499  1  0.89863185  0.42441395  0.28441021  1.0
  Ti  Ti500  1  0.89863185  0.56727110  0.28441021  1.0
  Ti  Ti501  1  0.89863185  0.71012824  0.28441021  1.0
  Ti  Ti502  1  0.89863185  0.85298538  0.28441021  1.0
  Ti  Ti503  1  0.89863185  0.99584252  0.28441021  1.0
  Ti  Ti504  1  0.03090698  0.00944797  0.33202926  1.0
  Ti  Ti505  1  0.03090698  0.15230511  0.33202926  1.0
  Ti  Ti506  1  0.03090698  0.29516225  0.33202926  1.0
  Ti  Ti507  1  0.03090698  0.43801940  0.33202926  1.0
  Ti  Ti508  1  0.03090698  0.58087654  0.33202926  1.0
  Ti  Ti509  1  0.03090698  0.72373368  0.33202926  1.0
  Ti  Ti510  1  0.03090698  0.86659082  0.33202926  1.0
  Ti  Ti511  1  0.14201809  0.00944797  0.33202926  1.0
  Ti  Ti512  1  0.14201809  0.15230511  0.33202926  1.0
  Ti  Ti513  1  0.14201809  0.29516225  0.33202926  1.0
  Ti  Ti514  1  0.14201809  0.43801940  0.33202926  1.0
  Ti  Ti515  1  0.14201809  0.58087654  0.33202926  1.0
  Ti  Ti516  1  0.14201809  0.72373368  0.33202926  1.0
  Ti  Ti517  1  0.14201809  0.86659082  0.33202926  1.0
  Ti  Ti518  1  0.25312920  0.00944797  0.33202926  1.0
  Ti  Ti519  1  0.25312920  0.15230511  0.33202926  1.0
  Ti  Ti520  1  0.25312920  0.29516225  0.33202926  1.0
  Ti  Ti521  1  0.25312920  0.43801940  0.33202926  1.0
  Ti  Ti522  1  0.25312920  0.58087654  0.33202926  1.0
  Ti  Ti523  1  0.25312920  0.72373368  0.33202926  1.0
  Ti  Ti524  1  0.25312920  0.86659082  0.33202926  1.0
  Ti  Ti525  1  0.36424031  0.00944797  0.33202926  1.0
  Ti  Ti526  1  0.36424031  0.15230511  0.33202926  1.0
  Ti  Ti527  1  0.36424031  0.29516225  0.33202926  1.0
  Ti  Ti528  1  0.36424031  0.43801940  0.33202926  1.0
  Ti  Ti529  1  0.36424031  0.58087654  0.33202926  1.0
  Ti  Ti530  1  0.36424031  0.72373368  0.33202926  1.0
  Ti  Ti531  1  0.36424031  0.86659082  0.33202926  1.0
  Ti  Ti532  1  0.47535142  0.00944797  0.33202926  1.0
  Ti  Ti533  1  0.47535142  0.15230511  0.33202926  1.0
  Ti  Ti534  1  0.47535142  0.29516225  0.33202926  1.0
  Ti  Ti535  1  0.47535142  0.43801940  0.33202926  1.0
  Ti  Ti536  1  0.47535142  0.58087654  0.33202926  1.0
  Ti  Ti537  1  0.47535142  0.72373368  0.33202926  1.0
  Ti  Ti538  1  0.47535142  0.86659082  0.33202926  1.0
  Ti  Ti539  1  0.58646254  0.00944797  0.33202926  1.0
  Ti  Ti540  1  0.58646254  0.15230511  0.33202926  1.0
  Ti  Ti541  1  0.58646254  0.29516225  0.33202926  1.0
  Ti  Ti542  1  0.58646254  0.43801940  0.33202926  1.0
  Ti  Ti543  1  0.58646254  0.58087654  0.33202926  1.0
  Ti  Ti544  1  0.58646254  0.72373368  0.33202926  1.0
  Ti  Ti545  1  0.58646254  0.86659082  0.33202926  1.0
  Ti  Ti546  1  0.69757365  0.00944797  0.33202926  1.0
  Ti  Ti547  1  0.69757365  0.15230511  0.33202926  1.0
  Ti  Ti548  1  0.69757365  0.29516225  0.33202926  1.0
  Ti  Ti549  1  0.69757365  0.43801940  0.33202926  1.0
  Ti  Ti550  1  0.69757365  0.58087654  0.33202926  1.0
  Ti  Ti551  1  0.69757365  0.72373368  0.33202926  1.0
  Ti  Ti552  1  0.69757365  0.86659082  0.33202926  1.0
  Ti  Ti553  1  0.80868476  0.00944797  0.33202926  1.0
  Ti  Ti554  1  0.80868476  0.15230511  0.33202926  1.0
  Ti  Ti555  1  0.80868476  0.29516225  0.33202926  1.0
  Ti  Ti556  1  0.80868476  0.43801940  0.33202926  1.0
  Ti  Ti557  1  0.80868476  0.58087654  0.33202926  1.0
  Ti  Ti558  1  0.80868476  0.72373368  0.33202926  1.0
  Ti  Ti559  1  0.80868476  0.86659082  0.33202926  1.0
  Ti  Ti560  1  0.91979587  0.00944797  0.33202926  1.0
  Ti  Ti561  1  0.91979587  0.15230511  0.33202926  1.0
  Ti  Ti562  1  0.91979587  0.29516225  0.33202926  1.0
  Ti  Ti563  1  0.91979587  0.43801940  0.33202926  1.0
  Ti  Ti564  1  0.91979587  0.58087654  0.33202926  1.0
  Ti  Ti565  1  0.91979587  0.72373368  0.33202926  1.0
  Ti  Ti566  1  0.91979587  0.86659082  0.33202926  1.0
  Ti  Ti567  1  0.08261496  0.05197767  0.31449061  1.0
  Ti  Ti568  1  0.08261496  0.19483482  0.31449061  1.0
  Ti  Ti569  1  0.08261496  0.33769196  0.31449061  1.0
  Ti  Ti570  1  0.08261496  0.48054910  0.31449061  1.0
  Ti  Ti571  1  0.08261496  0.62340624  0.31449061  1.0
  Ti  Ti572  1  0.08261496  0.76626339  0.31449061  1.0
  Ti  Ti573  1  0.08261496  0.90912053  0.31449061  1.0
  Ti  Ti574  1  0.19372607  0.05197767  0.31449061  1.0
  Ti  Ti575  1  0.19372607  0.19483482  0.31449061  1.0
  Ti  Ti576  1  0.19372607  0.33769196  0.31449061  1.0
  Ti  Ti577  1  0.19372607  0.48054910  0.31449061  1.0
  Ti  Ti578  1  0.19372607  0.62340624  0.31449061  1.0
  Ti  Ti579  1  0.19372607  0.76626339  0.31449061  1.0
  Ti  Ti580  1  0.19372607  0.90912053  0.31449061  1.0
  Ti  Ti581  1  0.30483718  0.05197767  0.31449061  1.0
  Ti  Ti582  1  0.30483718  0.19483482  0.31449061  1.0
  Ti  Ti583  1  0.30483718  0.33769196  0.31449061  1.0
  Ti  Ti584  1  0.30483718  0.48054910  0.31449061  1.0
  Ti  Ti585  1  0.30483718  0.62340624  0.31449061  1.0
  Ti  Ti586  1  0.30483718  0.76626339  0.31449061  1.0
  Ti  Ti587  1  0.30483718  0.90912053  0.31449061  1.0
  Ti  Ti588  1  0.41594829  0.05197767  0.31449061  1.0
  Ti  Ti589  1  0.41594829  0.19483482  0.31449061  1.0
  Ti  Ti590  1  0.41594829  0.33769196  0.31449061  1.0
  Ti  Ti591  1  0.41594829  0.48054910  0.31449061  1.0
  Ti  Ti592  1  0.41594829  0.62340624  0.31449061  1.0
  Ti  Ti593  1  0.41594829  0.76626339  0.31449061  1.0
  Ti  Ti594  1  0.41594829  0.90912053  0.31449061  1.0
  Ti  Ti595  1  0.52705940  0.05197767  0.31449061  1.0
  Ti  Ti596  1  0.52705940  0.19483482  0.31449061  1.0
  Ti  Ti597  1  0.52705940  0.33769196  0.31449061  1.0
  Ti  Ti598  1  0.52705940  0.48054910  0.31449061  1.0
  Ti  Ti599  1  0.52705940  0.62340624  0.31449061  1.0
  Ti  Ti600  1  0.52705940  0.76626339  0.31449061  1.0
  Ti  Ti601  1  0.52705940  0.90912053  0.31449061  1.0
  Ti  Ti602  1  0.63817051  0.05197767  0.31449061  1.0
  Ti  Ti603  1  0.63817051  0.19483482  0.31449061  1.0
  Ti  Ti604  1  0.63817051  0.33769196  0.31449061  1.0
  Ti  Ti605  1  0.63817051  0.48054910  0.31449061  1.0
  Ti  Ti606  1  0.63817051  0.62340624  0.31449061  1.0
  Ti  Ti607  1  0.63817051  0.76626339  0.31449061  1.0
  Ti  Ti608  1  0.63817051  0.90912053  0.31449061  1.0
  Ti  Ti609  1  0.74928162  0.05197767  0.31449061  1.0
  Ti  Ti610  1  0.74928162  0.19483482  0.31449061  1.0
  Ti  Ti611  1  0.74928162  0.33769196  0.31449061  1.0
  Ti  Ti612  1  0.74928162  0.48054910  0.31449061  1.0
  Ti  Ti613  1  0.74928162  0.62340624  0.31449061  1.0
  Ti  Ti614  1  0.74928162  0.76626339  0.31449061  1.0
  Ti  Ti615  1  0.74928162  0.90912053  0.31449061  1.0
  Ti  Ti616  1  0.86039274  0.05197767  0.31449061  1.0
  Ti  Ti617  1  0.86039274  0.19483482  0.31449061  1.0
  Ti  Ti618  1  0.86039274  0.33769196  0.31449061  1.0
  Ti  Ti619  1  0.86039274  0.48054910  0.31449061  1.0
  Ti  Ti620  1  0.86039274  0.62340624  0.31449061  1.0
  Ti  Ti621  1  0.86039274  0.76626339  0.31449061  1.0
  Ti  Ti622  1  0.86039274  0.90912053  0.31449061  1.0
  Ti  Ti623  1  0.97150385  0.05197767  0.31449061  1.0
  Ti  Ti624  1  0.97150385  0.19483482  0.31449061  1.0
  Ti  Ti625  1  0.97150385  0.33769196  0.31449061  1.0
  Ti  Ti626  1  0.97150385  0.48054910  0.31449061  1.0
  Ti  Ti627  1  0.97150385  0.62340624  0.31449061  1.0
  Ti  Ti628  1  0.97150385  0.76626339  0.31449061  1.0
  Ti  Ti629  1  0.97150385  0.90912053  0.31449061  1.0
  Ti  Ti630  1  0.04028692  0.02476679  0.21925251  1.0
  Ti  Ti631  1  0.04028692  0.16762393  0.21925251  1.0
  Ti  Ti632  1  0.04028692  0.31048107  0.21925251  1.0
  Ti  Ti633  1  0.04028692  0.45333822  0.21925251  1.0
  Ti  Ti634  1  0.04028692  0.59619536  0.21925251  1.0
  Ti  Ti635  1  0.04028692  0.73905250  0.21925251  1.0
  Ti  Ti636  1  0.04028692  0.88190965  0.21925251  1.0
  Ti  Ti637  1  0.15139803  0.02476679  0.21925251  1.0
  Ti  Ti638  1  0.15139803  0.16762393  0.21925251  1.0
  Ti  Ti639  1  0.15139803  0.31048107  0.21925251  1.0
  Ti  Ti640  1  0.15139803  0.45333822  0.21925251  1.0
  Ti  Ti641  1  0.15139803  0.59619536  0.21925251  1.0
  Ti  Ti642  1  0.15139803  0.73905250  0.21925251  1.0
  Ti  Ti643  1  0.15139803  0.88190965  0.21925251  1.0
  Ti  Ti644  1  0.26250914  0.02476679  0.21925251  1.0
  Ti  Ti645  1  0.26250914  0.16762393  0.21925251  1.0
  Ti  Ti646  1  0.26250914  0.31048107  0.21925251  1.0
  Ti  Ti647  1  0.26250914  0.45333822  0.21925251  1.0
  Ti  Ti648  1  0.26250914  0.59619536  0.21925251  1.0
  Ti  Ti649  1  0.26250914  0.73905250  0.21925251  1.0
  Ti  Ti650  1  0.26250914  0.88190965  0.21925251  1.0
  Ti  Ti651  1  0.37362025  0.02476679  0.21925251  1.0
  Ti  Ti652  1  0.37362025  0.16762393  0.21925251  1.0
  Ti  Ti653  1  0.37362025  0.31048107  0.21925251  1.0
  Ti  Ti654  1  0.37362025  0.45333822  0.21925251  1.0
  Ti  Ti655  1  0.37362025  0.59619536  0.21925251  1.0
  Ti  Ti656  1  0.37362025  0.73905250  0.21925251  1.0
  Ti  Ti657  1  0.37362025  0.88190965  0.21925251  1.0
  Ti  Ti658  1  0.48473136  0.02476679  0.21925251  1.0
  Ti  Ti659  1  0.48473136  0.16762393  0.21925251  1.0
  Ti  Ti660  1  0.48473136  0.31048107  0.21925251  1.0
  Ti  Ti661  1  0.48473136  0.45333822  0.21925251  1.0
  Ti  Ti662  1  0.48473136  0.59619536  0.21925251  1.0
  Ti  Ti663  1  0.48473136  0.73905250  0.21925251  1.0
  Ti  Ti664  1  0.48473136  0.88190965  0.21925251  1.0
  Ti  Ti665  1  0.59584247  0.02476679  0.21925251  1.0
  Ti  Ti666  1  0.59584247  0.16762393  0.21925251  1.0
  Ti  Ti667  1  0.59584247  0.31048107  0.21925251  1.0
  Ti  Ti668  1  0.59584247  0.45333822  0.21925251  1.0
  Ti  Ti669  1  0.59584247  0.59619536  0.21925251  1.0
  Ti  Ti670  1  0.59584247  0.73905250  0.21925251  1.0
  Ti  Ti671  1  0.59584247  0.88190965  0.21925251  1.0
  Ti  Ti672  1  0.70695358  0.02476679  0.21925251  1.0
  Ti  Ti673  1  0.70695358  0.16762393  0.21925251  1.0
  Ti  Ti674  1  0.70695358  0.31048107  0.21925251  1.0
  Ti  Ti675  1  0.70695358  0.45333822  0.21925251  1.0
  Ti  Ti676  1  0.70695358  0.59619536  0.21925251  1.0
  Ti  Ti677  1  0.70695358  0.73905250  0.21925251  1.0
  Ti  Ti678  1  0.70695358  0.88190965  0.21925251  1.0
  Ti  Ti679  1  0.81806469  0.02476679  0.21925251  1.0
  Ti  Ti680  1  0.81806469  0.16762393  0.21925251  1.0
  Ti  Ti681  1  0.81806469  0.31048107  0.21925251  1.0
  Ti  Ti682  1  0.81806469  0.45333822  0.21925251  1.0
  Ti  Ti683  1  0.81806469  0.59619536  0.21925251  1.0
  Ti  Ti684  1  0.81806469  0.73905250  0.21925251  1.0
  Ti  Ti685  1  0.81806469  0.88190965  0.21925251  1.0
  Ti  Ti686  1  0.92917580  0.02476679  0.21925251  1.0
  Ti  Ti687  1  0.92917580  0.16762393  0.21925251  1.0
  Ti  Ti688  1  0.92917580  0.31048107  0.21925251  1.0
  Ti  Ti689  1  0.92917580  0.45333822  0.21925251  1.0
  Ti  Ti690  1  0.92917580  0.59619536  0.21925251  1.0
  Ti  Ti691  1  0.92917580  0.73905250  0.21925251  1.0
  Ti  Ti692  1  0.92917580  0.88190965  0.21925251  1.0
  Ti  Ti693  1  0.06145094  0.03837223  0.26687156  1.0
  Ti  Ti694  1  0.06145094  0.18122937  0.26687156  1.0
  Ti  Ti695  1  0.06145094  0.32408652  0.26687156  1.0
  Ti  Ti696  1  0.06145094  0.46694366  0.26687156  1.0
  Ti  Ti697  1  0.06145094  0.60980080  0.26687156  1.0
  Ti  Ti698  1  0.06145094  0.75265795  0.26687156  1.0
  Ti  Ti699  1  0.06145094  0.89551509  0.26687156  1.0
  Ti  Ti700  1  0.17256205  0.03837223  0.26687156  1.0
  Ti  Ti701  1  0.17256205  0.18122937  0.26687156  1.0
  Ti  Ti702  1  0.17256205  0.32408652  0.26687156  1.0
  Ti  Ti703  1  0.17256205  0.46694366  0.26687156  1.0
  Ti  Ti704  1  0.17256205  0.60980080  0.26687156  1.0
  Ti  Ti705  1  0.17256205  0.75265795  0.26687156  1.0
  Ti  Ti706  1  0.17256205  0.89551509  0.26687156  1.0
  Ti  Ti707  1  0.28367316  0.03837223  0.26687156  1.0
  Ti  Ti708  1  0.28367316  0.18122937  0.26687156  1.0
  Ti  Ti709  1  0.28367316  0.32408652  0.26687156  1.0
  Ti  Ti710  1  0.28367316  0.46694366  0.26687156  1.0
  Ti  Ti711  1  0.28367316  0.60980080  0.26687156  1.0
  Ti  Ti712  1  0.28367316  0.75265795  0.26687156  1.0
  Ti  Ti713  1  0.28367316  0.89551509  0.26687156  1.0
  Ti  Ti714  1  0.39478427  0.03837223  0.26687156  1.0
  Ti  Ti715  1  0.39478427  0.18122937  0.26687156  1.0
  Ti  Ti716  1  0.39478427  0.32408652  0.26687156  1.0
  Ti  Ti717  1  0.39478427  0.46694366  0.26687156  1.0
  Ti  Ti718  1  0.39478427  0.60980080  0.26687156  1.0
  Ti  Ti719  1  0.39478427  0.75265795  0.26687156  1.0
  Ti  Ti720  1  0.39478427  0.89551509  0.26687156  1.0
  Ti  Ti721  1  0.50589538  0.03837223  0.26687156  1.0
  Ti  Ti722  1  0.50589538  0.18122937  0.26687156  1.0
  Ti  Ti723  1  0.50589538  0.32408652  0.26687156  1.0
  Ti  Ti724  1  0.50589538  0.46694366  0.26687156  1.0
  Ti  Ti725  1  0.50589538  0.60980080  0.26687156  1.0
  Ti  Ti726  1  0.50589538  0.75265795  0.26687156  1.0
  Ti  Ti727  1  0.50589538  0.89551509  0.26687156  1.0
  Ti  Ti728  1  0.61700649  0.03837223  0.26687156  1.0
  Ti  Ti729  1  0.61700649  0.18122937  0.26687156  1.0
  Ti  Ti730  1  0.61700649  0.32408652  0.26687156  1.0
  Ti  Ti731  1  0.61700649  0.46694366  0.26687156  1.0
  Ti  Ti732  1  0.61700649  0.60980080  0.26687156  1.0
  Ti  Ti733  1  0.61700649  0.75265795  0.26687156  1.0
  Ti  Ti734  1  0.61700649  0.89551509  0.26687156  1.0
  Ti  Ti735  1  0.72811760  0.03837223  0.26687156  1.0
  Ti  Ti736  1  0.72811760  0.18122937  0.26687156  1.0
  Ti  Ti737  1  0.72811760  0.32408652  0.26687156  1.0
  Ti  Ti738  1  0.72811760  0.46694366  0.26687156  1.0
  Ti  Ti739  1  0.72811760  0.60980080  0.26687156  1.0
  Ti  Ti740  1  0.72811760  0.75265795  0.26687156  1.0
  Ti  Ti741  1  0.72811760  0.89551509  0.26687156  1.0
  Ti  Ti742  1  0.83922871  0.03837223  0.26687156  1.0
  Ti  Ti743  1  0.83922871  0.18122937  0.26687156  1.0
  Ti  Ti744  1  0.83922871  0.32408652  0.26687156  1.0
  Ti  Ti745  1  0.83922871  0.46694366  0.26687156  1.0
  Ti  Ti746  1  0.83922871  0.60980080  0.26687156  1.0
  Ti  Ti747  1  0.83922871  0.75265795  0.26687156  1.0
  Ti  Ti748  1  0.83922871  0.89551509  0.26687156  1.0
  Ti  Ti749  1  0.95033983  0.03837223  0.26687156  1.0
  Ti  Ti750  1  0.95033983  0.18122937  0.26687156  1.0
  Ti  Ti751  1  0.95033983  0.32408652  0.26687156  1.0
  Ti  Ti752  1  0.95033983  0.46694366  0.26687156  1.0
  Ti  Ti753  1  0.95033983  0.60980080  0.26687156  1.0
  Ti  Ti754  1  0.95033983  0.75265795  0.26687156  1.0
  Ti  Ti755  1  0.95033983  0.89551509  0.26687156  1.0
  Ti  Ti756  1  0.01063639  0.00824334  0.41142044  1.0
  Ti  Ti757  1  0.01063639  0.15110048  0.41142044  1.0
  Ti  Ti758  1  0.01063639  0.29395762  0.41142044  1.0
  Ti  Ti759  1  0.01063639  0.43681477  0.41142044  1.0
  Ti  Ti760  1  0.01063639  0.57967191  0.41142044  1.0
  Ti  Ti761  1  0.01063639  0.72252905  0.41142044  1.0
  Ti  Ti762  1  0.01063639  0.86538620  0.41142044  1.0
  Ti  Ti763  1  0.12174750  0.00824334  0.41142044  1.0
  Ti  Ti764  1  0.12174750  0.15110048  0.41142044  1.0
  Ti  Ti765  1  0.12174750  0.29395762  0.41142044  1.0
  Ti  Ti766  1  0.12174750  0.43681477  0.41142044  1.0
  Ti  Ti767  1  0.12174750  0.57967191  0.41142044  1.0
  Ti  Ti768  1  0.12174750  0.72252905  0.41142044  1.0
  Ti  Ti769  1  0.12174750  0.86538620  0.41142044  1.0
  Ti  Ti770  1  0.23285862  0.00824334  0.41142044  1.0
  Ti  Ti771  1  0.23285862  0.15110048  0.41142044  1.0
  Ti  Ti772  1  0.23285862  0.29395762  0.41142044  1.0
  Ti  Ti773  1  0.23285862  0.43681477  0.41142044  1.0
  Ti  Ti774  1  0.23285862  0.57967191  0.41142044  1.0
  Ti  Ti775  1  0.23285862  0.72252905  0.41142044  1.0
  Ti  Ti776  1  0.23285862  0.86538620  0.41142044  1.0
  Ti  Ti777  1  0.34396973  0.00824334  0.41142044  1.0
  Ti  Ti778  1  0.34396973  0.15110048  0.41142044  1.0
  Ti  Ti779  1  0.34396973  0.29395762  0.41142044  1.0
  Ti  Ti780  1  0.34396973  0.43681477  0.41142044  1.0
  Ti  Ti781  1  0.34396973  0.57967191  0.41142044  1.0
  Ti  Ti782  1  0.34396973  0.72252905  0.41142044  1.0
  Ti  Ti783  1  0.34396973  0.86538620  0.41142044  1.0
  Ti  Ti784  1  0.45508084  0.00824334  0.41142044  1.0
  Ti  Ti785  1  0.45508084  0.15110048  0.41142044  1.0
  Ti  Ti786  1  0.45508084  0.29395762  0.41142044  1.0
  Ti  Ti787  1  0.45508084  0.43681477  0.41142044  1.0
  Ti  Ti788  1  0.45508084  0.57967191  0.41142044  1.0
  Ti  Ti789  1  0.45508084  0.72252905  0.41142044  1.0
  Ti  Ti790  1  0.45508084  0.86538620  0.41142044  1.0
  Ti  Ti791  1  0.56619195  0.00824334  0.41142044  1.0
  Ti  Ti792  1  0.56619195  0.15110048  0.41142044  1.0
  Ti  Ti793  1  0.56619195  0.29395762  0.41142044  1.0
  Ti  Ti794  1  0.56619195  0.43681477  0.41142044  1.0
  Ti  Ti795  1  0.56619195  0.57967191  0.41142044  1.0
  Ti  Ti796  1  0.56619195  0.72252905  0.41142044  1.0
  Ti  Ti797  1  0.56619195  0.86538620  0.41142044  1.0
  Ti  Ti798  1  0.67730306  0.00824334  0.41142044  1.0
  Ti  Ti799  1  0.67730306  0.15110048  0.41142044  1.0
  Ti  Ti800  1  0.67730306  0.29395762  0.41142044  1.0
  Ti  Ti801  1  0.67730306  0.43681477  0.41142044  1.0
  Ti  Ti802  1  0.67730306  0.57967191  0.41142044  1.0
  Ti  Ti803  1  0.67730306  0.72252905  0.41142044  1.0
  Ti  Ti804  1  0.67730306  0.86538620  0.41142044  1.0
  Ti  Ti805  1  0.78841417  0.00824334  0.41142044  1.0
  Ti  Ti806  1  0.78841417  0.15110048  0.41142044  1.0
  Ti  Ti807  1  0.78841417  0.29395762  0.41142044  1.0
  Ti  Ti808  1  0.78841417  0.43681477  0.41142044  1.0
  Ti  Ti809  1  0.78841417  0.57967191  0.41142044  1.0
  Ti  Ti810  1  0.78841417  0.72252905  0.41142044  1.0
  Ti  Ti811  1  0.78841417  0.86538620  0.41142044  1.0
  Ti  Ti812  1  0.89952528  0.00824334  0.41142044  1.0
  Ti  Ti813  1  0.89952528  0.15110048  0.41142044  1.0
  Ti  Ti814  1  0.89952528  0.29395762  0.41142044  1.0
  Ti  Ti815  1  0.89952528  0.43681477  0.41142044  1.0
  Ti  Ti816  1  0.89952528  0.57967191  0.41142044  1.0
  Ti  Ti817  1  0.89952528  0.72252905  0.41142044  1.0
  Ti  Ti818  1  0.89952528  0.86538620  0.41142044  1.0
  Ti  Ti819  1  0.03180041  0.02184878  0.45903948  1.0
  Ti  Ti820  1  0.03180041  0.16470592  0.45903948  1.0
  Ti  Ti821  1  0.03180041  0.30756307  0.45903948  1.0
  Ti  Ti822  1  0.03180041  0.45042021  0.45903948  1.0
  Ti  Ti823  1  0.03180041  0.59327735  0.45903948  1.0
  Ti  Ti824  1  0.03180041  0.73613449  0.45903948  1.0
  Ti  Ti825  1  0.03180041  0.87899164  0.45903948  1.0
  Ti  Ti826  1  0.14291153  0.02184878  0.45903948  1.0
  Ti  Ti827  1  0.14291153  0.16470592  0.45903948  1.0
  Ti  Ti828  1  0.14291153  0.30756307  0.45903948  1.0
  Ti  Ti829  1  0.14291153  0.45042021  0.45903948  1.0
  Ti  Ti830  1  0.14291153  0.59327735  0.45903948  1.0
  Ti  Ti831  1  0.14291153  0.73613449  0.45903948  1.0
  Ti  Ti832  1  0.14291153  0.87899164  0.45903948  1.0
  Ti  Ti833  1  0.25402264  0.02184878  0.45903948  1.0
  Ti  Ti834  1  0.25402264  0.16470592  0.45903948  1.0
  Ti  Ti835  1  0.25402264  0.30756307  0.45903948  1.0
  Ti  Ti836  1  0.25402264  0.45042021  0.45903948  1.0
  Ti  Ti837  1  0.25402264  0.59327735  0.45903948  1.0
  Ti  Ti838  1  0.25402264  0.73613449  0.45903948  1.0
  Ti  Ti839  1  0.25402264  0.87899164  0.45903948  1.0
  Ti  Ti840  1  0.36513375  0.02184878  0.45903948  1.0
  Ti  Ti841  1  0.36513375  0.16470592  0.45903948  1.0
  Ti  Ti842  1  0.36513375  0.30756307  0.45903948  1.0
  Ti  Ti843  1  0.36513375  0.45042021  0.45903948  1.0
  Ti  Ti844  1  0.36513375  0.59327735  0.45903948  1.0
  Ti  Ti845  1  0.36513375  0.73613449  0.45903948  1.0
  Ti  Ti846  1  0.36513375  0.87899164  0.45903948  1.0
  Ti  Ti847  1  0.47624486  0.02184878  0.45903948  1.0
  Ti  Ti848  1  0.47624486  0.16470592  0.45903948  1.0
  Ti  Ti849  1  0.47624486  0.30756307  0.45903948  1.0
  Ti  Ti850  1  0.47624486  0.45042021  0.45903948  1.0
  Ti  Ti851  1  0.47624486  0.59327735  0.45903948  1.0
  Ti  Ti852  1  0.47624486  0.73613449  0.45903948  1.0
  Ti  Ti853  1  0.47624486  0.87899164  0.45903948  1.0
  Ti  Ti854  1  0.58735597  0.02184878  0.45903948  1.0
  Ti  Ti855  1  0.58735597  0.16470592  0.45903948  1.0
  Ti  Ti856  1  0.58735597  0.30756307  0.45903948  1.0
  Ti  Ti857  1  0.58735597  0.45042021  0.45903948  1.0
  Ti  Ti858  1  0.58735597  0.59327735  0.45903948  1.0
  Ti  Ti859  1  0.58735597  0.73613449  0.45903948  1.0
  Ti  Ti860  1  0.58735597  0.87899164  0.45903948  1.0
  Ti  Ti861  1  0.69846708  0.02184878  0.45903948  1.0
  Ti  Ti862  1  0.69846708  0.16470592  0.45903948  1.0
  Ti  Ti863  1  0.69846708  0.30756307  0.45903948  1.0
  Ti  Ti864  1  0.69846708  0.45042021  0.45903948  1.0
  Ti  Ti865  1  0.69846708  0.59327735  0.45903948  1.0
  Ti  Ti866  1  0.69846708  0.73613449  0.45903948  1.0
  Ti  Ti867  1  0.69846708  0.87899164  0.45903948  1.0
  Ti  Ti868  1  0.80957819  0.02184878  0.45903948  1.0
  Ti  Ti869  1  0.80957819  0.16470592  0.45903948  1.0
  Ti  Ti870  1  0.80957819  0.30756307  0.45903948  1.0
  Ti  Ti871  1  0.80957819  0.45042021  0.45903948  1.0
  Ti  Ti872  1  0.80957819  0.59327735  0.45903948  1.0
  Ti  Ti873  1  0.80957819  0.73613449  0.45903948  1.0
  Ti  Ti874  1  0.80957819  0.87899164  0.45903948  1.0
  Ti  Ti875  1  0.92068930  0.02184878  0.45903948  1.0
  Ti  Ti876  1  0.92068930  0.16470592  0.45903948  1.0
  Ti  Ti877  1  0.92068930  0.30756307  0.45903948  1.0
  Ti  Ti878  1  0.92068930  0.45042021  0.45903948  1.0
  Ti  Ti879  1  0.92068930  0.59327735  0.45903948  1.0
  Ti  Ti880  1  0.92068930  0.73613449  0.45903948  1.0
  Ti  Ti881  1  0.92068930  0.87899164  0.45903948  1.0
  Ti  Ti882  1  0.10058348  0.13749504  0.36380139  1.0
  Ti  Ti883  1  0.10058348  0.28035218  0.36380139  1.0
  Ti  Ti884  1  0.10058348  0.42320932  0.36380139  1.0
  Ti  Ti885  1  0.10058348  0.56606647  0.36380139  1.0
  Ti  Ti886  1  0.10058348  0.70892361  0.36380139  1.0
  Ti  Ti887  1  0.10058348  0.85178075  0.36380139  1.0
  Ti  Ti888  1  0.10058348  0.99463790  0.36380139  1.0
  Ti  Ti889  1  0.21169459  0.13749504  0.36380139  1.0
  Ti  Ti890  1  0.21169459  0.28035218  0.36380139  1.0
  Ti  Ti891  1  0.21169459  0.42320932  0.36380139  1.0
  Ti  Ti892  1  0.21169459  0.56606647  0.36380139  1.0
  Ti  Ti893  1  0.21169459  0.70892361  0.36380139  1.0
  Ti  Ti894  1  0.21169459  0.85178075  0.36380139  1.0
  Ti  Ti895  1  0.21169459  0.99463790  0.36380139  1.0
  Ti  Ti896  1  0.32280571  0.13749504  0.36380139  1.0
  Ti  Ti897  1  0.32280571  0.28035218  0.36380139  1.0
  Ti  Ti898  1  0.32280571  0.42320932  0.36380139  1.0
  Ti  Ti899  1  0.32280571  0.56606647  0.36380139  1.0
  Ti  Ti900  1  0.32280571  0.70892361  0.36380139  1.0
  Ti  Ti901  1  0.32280571  0.85178075  0.36380139  1.0
  Ti  Ti902  1  0.32280571  0.99463790  0.36380139  1.0
  Ti  Ti903  1  0.43391682  0.13749504  0.36380139  1.0
  Ti  Ti904  1  0.43391682  0.28035218  0.36380139  1.0
  Ti  Ti905  1  0.43391682  0.42320932  0.36380139  1.0
  Ti  Ti906  1  0.43391682  0.56606647  0.36380139  1.0
  Ti  Ti907  1  0.43391682  0.70892361  0.36380139  1.0
  Ti  Ti908  1  0.43391682  0.85178075  0.36380139  1.0
  Ti  Ti909  1  0.43391682  0.99463790  0.36380139  1.0
  Ti  Ti910  1  0.54502793  0.13749504  0.36380139  1.0
  Ti  Ti911  1  0.54502793  0.28035218  0.36380139  1.0
  Ti  Ti912  1  0.54502793  0.42320932  0.36380139  1.0
  Ti  Ti913  1  0.54502793  0.56606647  0.36380139  1.0
  Ti  Ti914  1  0.54502793  0.70892361  0.36380139  1.0
  Ti  Ti915  1  0.54502793  0.85178075  0.36380139  1.0
  Ti  Ti916  1  0.54502793  0.99463790  0.36380139  1.0
  Ti  Ti917  1  0.65613904  0.13749504  0.36380139  1.0
  Ti  Ti918  1  0.65613904  0.28035218  0.36380139  1.0
  Ti  Ti919  1  0.65613904  0.42320932  0.36380139  1.0
  Ti  Ti920  1  0.65613904  0.56606647  0.36380139  1.0
  Ti  Ti921  1  0.65613904  0.70892361  0.36380139  1.0
  Ti  Ti922  1  0.65613904  0.85178075  0.36380139  1.0
  Ti  Ti923  1  0.65613904  0.99463790  0.36380139  1.0
  Ti  Ti924  1  0.76725015  0.13749504  0.36380139  1.0
  Ti  Ti925  1  0.76725015  0.28035218  0.36380139  1.0
  Ti  Ti926  1  0.76725015  0.42320932  0.36380139  1.0
  Ti  Ti927  1  0.76725015  0.56606647  0.36380139  1.0
  Ti  Ti928  1  0.76725015  0.70892361  0.36380139  1.0
  Ti  Ti929  1  0.76725015  0.85178075  0.36380139  1.0
  Ti  Ti930  1  0.76725015  0.99463790  0.36380139  1.0
  Ti  Ti931  1  0.87836126  0.13749504  0.36380139  1.0
  Ti  Ti932  1  0.87836126  0.28035218  0.36380139  1.0
  Ti  Ti933  1  0.87836126  0.42320932  0.36380139  1.0
  Ti  Ti934  1  0.87836126  0.56606647  0.36380139  1.0
  Ti  Ti935  1  0.87836126  0.70892361  0.36380139  1.0
  Ti  Ti936  1  0.87836126  0.85178075  0.36380139  1.0
  Ti  Ti937  1  0.87836126  0.99463790  0.36380139  1.0
  Ti  Ti938  1  0.98947237  0.13749504  0.36380139  1.0
  Ti  Ti939  1  0.98947237  0.28035218  0.36380139  1.0
  Ti  Ti940  1  0.98947237  0.42320932  0.36380139  1.0
  Ti  Ti941  1  0.98947237  0.56606647  0.36380139  1.0
  Ti  Ti942  1  0.98947237  0.70892361  0.36380139  1.0
  Ti  Ti943  1  0.98947237  0.85178075  0.36380139  1.0
  Ti  Ti944  1  0.98947237  0.99463790  0.36380139  1.0
  Ti  Ti945  1  0.07643052  0.10760407  0.42557562  1.0
  Ti  Ti946  1  0.07643052  0.25046121  0.42557562  1.0
  Ti  Ti947  1  0.07643052  0.39331836  0.42557562  1.0
  Ti  Ti948  1  0.07643052  0.53617550  0.42557562  1.0
  Ti  Ti949  1  0.07643052  0.67903264  0.42557562  1.0
  Ti  Ti950  1  0.07643052  0.82188978  0.42557562  1.0
  Ti  Ti951  1  0.07643052  0.96474693  0.42557562  1.0
  Ti  Ti952  1  0.18754163  0.10760407  0.42557562  1.0
  Ti  Ti953  1  0.18754163  0.25046121  0.42557562  1.0
  Ti  Ti954  1  0.18754163  0.39331836  0.42557562  1.0
  Ti  Ti955  1  0.18754163  0.53617550  0.42557562  1.0
  Ti  Ti956  1  0.18754163  0.67903264  0.42557562  1.0
  Ti  Ti957  1  0.18754163  0.82188978  0.42557562  1.0
  Ti  Ti958  1  0.18754163  0.96474693  0.42557562  1.0
  Ti  Ti959  1  0.29865274  0.10760407  0.42557562  1.0
  Ti  Ti960  1  0.29865274  0.25046121  0.42557562  1.0
  Ti  Ti961  1  0.29865274  0.39331836  0.42557562  1.0
  Ti  Ti962  1  0.29865274  0.53617550  0.42557562  1.0
  Ti  Ti963  1  0.29865274  0.67903264  0.42557562  1.0
  Ti  Ti964  1  0.29865274  0.82188978  0.42557562  1.0
  Ti  Ti965  1  0.29865274  0.96474693  0.42557562  1.0
  Ti  Ti966  1  0.40976385  0.10760407  0.42557562  1.0
  Ti  Ti967  1  0.40976385  0.25046121  0.42557562  1.0
  Ti  Ti968  1  0.40976385  0.39331836  0.42557562  1.0
  Ti  Ti969  1  0.40976385  0.53617550  0.42557562  1.0
  Ti  Ti970  1  0.40976385  0.67903264  0.42557562  1.0
  Ti  Ti971  1  0.40976385  0.82188978  0.42557562  1.0
  Ti  Ti972  1  0.40976385  0.96474693  0.42557562  1.0
  Ti  Ti973  1  0.52087496  0.10760407  0.42557562  1.0
  Ti  Ti974  1  0.52087496  0.25046121  0.42557562  1.0
  Ti  Ti975  1  0.52087496  0.39331836  0.42557562  1.0
  Ti  Ti976  1  0.52087496  0.53617550  0.42557562  1.0
  Ti  Ti977  1  0.52087496  0.67903264  0.42557562  1.0
  Ti  Ti978  1  0.52087496  0.82188978  0.42557562  1.0
  Ti  Ti979  1  0.52087496  0.96474693  0.42557562  1.0
  Ti  Ti980  1  0.63198607  0.10760407  0.42557562  1.0
  Ti  Ti981  1  0.63198607  0.25046121  0.42557562  1.0
  Ti  Ti982  1  0.63198607  0.39331836  0.42557562  1.0
  Ti  Ti983  1  0.63198607  0.53617550  0.42557562  1.0
  Ti  Ti984  1  0.63198607  0.67903264  0.42557562  1.0
  Ti  Ti985  1  0.63198607  0.82188978  0.42557562  1.0
  Ti  Ti986  1  0.63198607  0.96474693  0.42557562  1.0
  Ti  Ti987  1  0.74309719  0.10760407  0.42557562  1.0
  Ti  Ti988  1  0.74309719  0.25046121  0.42557562  1.0
  Ti  Ti989  1  0.74309719  0.39331836  0.42557562  1.0
  Ti  Ti990  1  0.74309719  0.53617550  0.42557562  1.0
  Ti  Ti991  1  0.74309719  0.67903264  0.42557562  1.0
  Ti  Ti992  1  0.74309719  0.82188978  0.42557562  1.0
  Ti  Ti993  1  0.74309719  0.96474693  0.42557562  1.0
  Ti  Ti994  1  0.85420830  0.10760407  0.42557562  1.0
  Ti  Ti995  1  0.85420830  0.25046121  0.42557562  1.0
  Ti  Ti996  1  0.85420830  0.39331836  0.42557562  1.0
  Ti  Ti997  1  0.85420830  0.53617550  0.42557562  1.0
  Ti  Ti998  1  0.85420830  0.67903264  0.42557562  1.0
  Ti  Ti999  1  0.85420830  0.82188978  0.42557562  1.0
  Ti  Ti1000  1  0.85420830  0.96474693  0.42557562  1.0
  Ti  Ti1001  1  0.96531941  0.10760407  0.42557562  1.0
  Ti  Ti1002  1  0.96531941  0.25046121  0.42557562  1.0
  Ti  Ti1003  1  0.96531941  0.39331836  0.42557562  1.0
  Ti  Ti1004  1  0.96531941  0.53617550  0.42557562  1.0
  Ti  Ti1005  1  0.96531941  0.67903264  0.42557562  1.0
  Ti  Ti1006  1  0.96531941  0.82188978  0.42557562  1.0
  Ti  Ti1007  1  0.96531941  0.96474693  0.42557562  1.0
  Ti  Ti1008  1  0.09759454  0.12120951  0.47319467  1.0
  Ti  Ti1009  1  0.09759454  0.26406666  0.47319467  1.0
  Ti  Ti1010  1  0.09759454  0.40692380  0.47319467  1.0
  Ti  Ti1011  1  0.09759454  0.54978094  0.47319467  1.0
  Ti  Ti1012  1  0.09759454  0.69263808  0.47319467  1.0
  Ti  Ti1013  1  0.09759454  0.83549523  0.47319467  1.0
  Ti  Ti1014  1  0.09759454  0.97835237  0.47319467  1.0
  Ti  Ti1015  1  0.20870565  0.12120951  0.47319467  1.0
  Ti  Ti1016  1  0.20870565  0.26406666  0.47319467  1.0
  Ti  Ti1017  1  0.20870565  0.40692380  0.47319467  1.0
  Ti  Ti1018  1  0.20870565  0.54978094  0.47319467  1.0
  Ti  Ti1019  1  0.20870565  0.69263808  0.47319467  1.0
  Ti  Ti1020  1  0.20870565  0.83549523  0.47319467  1.0
  Ti  Ti1021  1  0.20870565  0.97835237  0.47319467  1.0
  Ti  Ti1022  1  0.31981676  0.12120951  0.47319467  1.0
  Ti  Ti1023  1  0.31981676  0.26406666  0.47319467  1.0
  Ti  Ti1024  1  0.31981676  0.40692380  0.47319467  1.0
  Ti  Ti1025  1  0.31981676  0.54978094  0.47319467  1.0
  Ti  Ti1026  1  0.31981676  0.69263808  0.47319467  1.0
  Ti  Ti1027  1  0.31981676  0.83549523  0.47319467  1.0
  Ti  Ti1028  1  0.31981676  0.97835237  0.47319467  1.0
  Ti  Ti1029  1  0.43092787  0.12120951  0.47319467  1.0
  Ti  Ti1030  1  0.43092787  0.26406666  0.47319467  1.0
  Ti  Ti1031  1  0.43092787  0.40692380  0.47319467  1.0
  Ti  Ti1032  1  0.43092787  0.54978094  0.47319467  1.0
  Ti  Ti1033  1  0.43092787  0.69263808  0.47319467  1.0
  Ti  Ti1034  1  0.43092787  0.83549523  0.47319467  1.0
  Ti  Ti1035  1  0.43092787  0.97835237  0.47319467  1.0
  Ti  Ti1036  1  0.54203898  0.12120951  0.47319467  1.0
  Ti  Ti1037  1  0.54203898  0.26406666  0.47319467  1.0
  Ti  Ti1038  1  0.54203898  0.40692380  0.47319467  1.0
  Ti  Ti1039  1  0.54203898  0.54978094  0.47319467  1.0
  Ti  Ti1040  1  0.54203898  0.69263808  0.47319467  1.0
  Ti  Ti1041  1  0.54203898  0.83549523  0.47319467  1.0
  Ti  Ti1042  1  0.54203898  0.97835237  0.47319467  1.0
  Ti  Ti1043  1  0.65315010  0.12120951  0.47319467  1.0
  Ti  Ti1044  1  0.65315010  0.26406666  0.47319467  1.0
  Ti  Ti1045  1  0.65315010  0.40692380  0.47319467  1.0
  Ti  Ti1046  1  0.65315010  0.54978094  0.47319467  1.0
  Ti  Ti1047  1  0.65315010  0.69263808  0.47319467  1.0
  Ti  Ti1048  1  0.65315010  0.83549523  0.47319467  1.0
  Ti  Ti1049  1  0.65315010  0.97835237  0.47319467  1.0
  Ti  Ti1050  1  0.76426121  0.12120951  0.47319467  1.0
  Ti  Ti1051  1  0.76426121  0.26406666  0.47319467  1.0
  Ti  Ti1052  1  0.76426121  0.40692380  0.47319467  1.0
  Ti  Ti1053  1  0.76426121  0.54978094  0.47319467  1.0
  Ti  Ti1054  1  0.76426121  0.69263808  0.47319467  1.0
  Ti  Ti1055  1  0.76426121  0.83549523  0.47319467  1.0
  Ti  Ti1056  1  0.76426121  0.97835237  0.47319467  1.0
  Ti  Ti1057  1  0.87537232  0.12120951  0.47319467  1.0
  Ti  Ti1058  1  0.87537232  0.26406666  0.47319467  1.0
  Ti  Ti1059  1  0.87537232  0.40692380  0.47319467  1.0
  Ti  Ti1060  1  0.87537232  0.54978094  0.47319467  1.0
  Ti  Ti1061  1  0.87537232  0.69263808  0.47319467  1.0
  Ti  Ti1062  1  0.87537232  0.83549523  0.47319467  1.0
  Ti  Ti1063  1  0.87537232  0.97835237  0.47319467  1.0
  Ti  Ti1064  1  0.98648343  0.12120951  0.47319467  1.0
  Ti  Ti1065  1  0.98648343  0.26406666  0.47319467  1.0
  Ti  Ti1066  1  0.98648343  0.40692380  0.47319467  1.0
  Ti  Ti1067  1  0.98648343  0.54978094  0.47319467  1.0
  Ti  Ti1068  1  0.98648343  0.69263808  0.47319467  1.0
  Ti  Ti1069  1  0.98648343  0.83549523  0.47319467  1.0
  Ti  Ti1070  1  0.98648343  0.97835237  0.47319467  1.0
  Ti  Ti1071  1  0.05526650  0.09399863  0.37795657  1.0
  Ti  Ti1072  1  0.05526650  0.23685577  0.37795657  1.0
  Ti  Ti1073  1  0.05526650  0.37971291  0.37795657  1.0
  Ti  Ti1074  1  0.05526650  0.52257006  0.37795657  1.0
  Ti  Ti1075  1  0.05526650  0.66542720  0.37795657  1.0
  Ti  Ti1076  1  0.05526650  0.80828434  0.37795657  1.0
  Ti  Ti1077  1  0.05526650  0.95114149  0.37795657  1.0
  Ti  Ti1078  1  0.16637761  0.09399863  0.37795657  1.0
  Ti  Ti1079  1  0.16637761  0.23685577  0.37795657  1.0
  Ti  Ti1080  1  0.16637761  0.37971291  0.37795657  1.0
  Ti  Ti1081  1  0.16637761  0.52257006  0.37795657  1.0
  Ti  Ti1082  1  0.16637761  0.66542720  0.37795657  1.0
  Ti  Ti1083  1  0.16637761  0.80828434  0.37795657  1.0
  Ti  Ti1084  1  0.16637761  0.95114149  0.37795657  1.0
  Ti  Ti1085  1  0.27748872  0.09399863  0.37795657  1.0
  Ti  Ti1086  1  0.27748872  0.23685577  0.37795657  1.0
  Ti  Ti1087  1  0.27748872  0.37971291  0.37795657  1.0
  Ti  Ti1088  1  0.27748872  0.52257006  0.37795657  1.0
  Ti  Ti1089  1  0.27748872  0.66542720  0.37795657  1.0
  Ti  Ti1090  1  0.27748872  0.80828434  0.37795657  1.0
  Ti  Ti1091  1  0.27748872  0.95114149  0.37795657  1.0
  Ti  Ti1092  1  0.38859983  0.09399863  0.37795657  1.0
  Ti  Ti1093  1  0.38859983  0.23685577  0.37795657  1.0
  Ti  Ti1094  1  0.38859983  0.37971291  0.37795657  1.0
  Ti  Ti1095  1  0.38859983  0.52257006  0.37795657  1.0
  Ti  Ti1096  1  0.38859983  0.66542720  0.37795657  1.0
  Ti  Ti1097  1  0.38859983  0.80828434  0.37795657  1.0
  Ti  Ti1098  1  0.38859983  0.95114149  0.37795657  1.0
  Ti  Ti1099  1  0.49971094  0.09399863  0.37795657  1.0
  Ti  Ti1100  1  0.49971094  0.23685577  0.37795657  1.0
  Ti  Ti1101  1  0.49971094  0.37971291  0.37795657  1.0
  Ti  Ti1102  1  0.49971094  0.52257006  0.37795657  1.0
  Ti  Ti1103  1  0.49971094  0.66542720  0.37795657  1.0
  Ti  Ti1104  1  0.49971094  0.80828434  0.37795657  1.0
  Ti  Ti1105  1  0.49971094  0.95114149  0.37795657  1.0
  Ti  Ti1106  1  0.61082205  0.09399863  0.37795657  1.0
  Ti  Ti1107  1  0.61082205  0.23685577  0.37795657  1.0
  Ti  Ti1108  1  0.61082205  0.37971291  0.37795657  1.0
  Ti  Ti1109  1  0.61082205  0.52257006  0.37795657  1.0
  Ti  Ti1110  1  0.61082205  0.66542720  0.37795657  1.0
  Ti  Ti1111  1  0.61082205  0.80828434  0.37795657  1.0
  Ti  Ti1112  1  0.61082205  0.95114149  0.37795657  1.0
  Ti  Ti1113  1  0.72193316  0.09399863  0.37795657  1.0
  Ti  Ti1114  1  0.72193316  0.23685577  0.37795657  1.0
  Ti  Ti1115  1  0.72193316  0.37971291  0.37795657  1.0
  Ti  Ti1116  1  0.72193316  0.52257006  0.37795657  1.0
  Ti  Ti1117  1  0.72193316  0.66542720  0.37795657  1.0
  Ti  Ti1118  1  0.72193316  0.80828434  0.37795657  1.0
  Ti  Ti1119  1  0.72193316  0.95114149  0.37795657  1.0
  Ti  Ti1120  1  0.83304428  0.09399863  0.37795657  1.0
  Ti  Ti1121  1  0.83304428  0.23685577  0.37795657  1.0
  Ti  Ti1122  1  0.83304428  0.37971291  0.37795657  1.0
  Ti  Ti1123  1  0.83304428  0.52257006  0.37795657  1.0
  Ti  Ti1124  1  0.83304428  0.66542720  0.37795657  1.0
  Ti  Ti1125  1  0.83304428  0.80828434  0.37795657  1.0
  Ti  Ti1126  1  0.83304428  0.95114149  0.37795657  1.0
  Ti  Ti1127  1  0.94415539  0.09399863  0.37795657  1.0
  Ti  Ti1128  1  0.94415539  0.23685577  0.37795657  1.0
  Ti  Ti1129  1  0.94415539  0.37971291  0.37795657  1.0
  Ti  Ti1130  1  0.94415539  0.52257006  0.37795657  1.0
  Ti  Ti1131  1  0.94415539  0.66542720  0.37795657  1.0
  Ti  Ti1132  1  0.94415539  0.80828434  0.37795657  1.0
  Ti  Ti1133  1  0.94415539  0.95114149  0.37795657  1.0
  Ti  Ti1134  1  0.05207100  0.02305341  0.37964830  1.0
  Ti  Ti1135  1  0.05207100  0.16591055  0.37964830  1.0
  Ti  Ti1136  1  0.05207100  0.30876769  0.37964830  1.0
  Ti  Ti1137  1  0.05207100  0.45162484  0.37964830  1.0
  Ti  Ti1138  1  0.05207100  0.59448198  0.37964830  1.0
  Ti  Ti1139  1  0.05207100  0.73733912  0.37964830  1.0
  Ti  Ti1140  1  0.05207100  0.88019627  0.37964830  1.0
  Ti  Ti1141  1  0.16318211  0.02305341  0.37964830  1.0
  Ti  Ti1142  1  0.16318211  0.16591055  0.37964830  1.0
  Ti  Ti1143  1  0.16318211  0.30876769  0.37964830  1.0
  Ti  Ti1144  1  0.16318211  0.45162484  0.37964830  1.0
  Ti  Ti1145  1  0.16318211  0.59448198  0.37964830  1.0
  Ti  Ti1146  1  0.16318211  0.73733912  0.37964830  1.0
  Ti  Ti1147  1  0.16318211  0.88019627  0.37964830  1.0
  Ti  Ti1148  1  0.27429322  0.02305341  0.37964830  1.0
  Ti  Ti1149  1  0.27429322  0.16591055  0.37964830  1.0
  Ti  Ti1150  1  0.27429322  0.30876769  0.37964830  1.0
  Ti  Ti1151  1  0.27429322  0.45162484  0.37964830  1.0
  Ti  Ti1152  1  0.27429322  0.59448198  0.37964830  1.0
  Ti  Ti1153  1  0.27429322  0.73733912  0.37964830  1.0
  Ti  Ti1154  1  0.27429322  0.88019627  0.37964830  1.0
  Ti  Ti1155  1  0.38540433  0.02305341  0.37964830  1.0
  Ti  Ti1156  1  0.38540433  0.16591055  0.37964830  1.0
  Ti  Ti1157  1  0.38540433  0.30876769  0.37964830  1.0
  Ti  Ti1158  1  0.38540433  0.45162484  0.37964830  1.0
  Ti  Ti1159  1  0.38540433  0.59448198  0.37964830  1.0
  Ti  Ti1160  1  0.38540433  0.73733912  0.37964830  1.0
  Ti  Ti1161  1  0.38540433  0.88019627  0.37964830  1.0
  Ti  Ti1162  1  0.49651545  0.02305341  0.37964830  1.0
  Ti  Ti1163  1  0.49651545  0.16591055  0.37964830  1.0
  Ti  Ti1164  1  0.49651545  0.30876769  0.37964830  1.0
  Ti  Ti1165  1  0.49651545  0.45162484  0.37964830  1.0
  Ti  Ti1166  1  0.49651545  0.59448198  0.37964830  1.0
  Ti  Ti1167  1  0.49651545  0.73733912  0.37964830  1.0
  Ti  Ti1168  1  0.49651545  0.88019627  0.37964830  1.0
  Ti  Ti1169  1  0.60762656  0.02305341  0.37964830  1.0
  Ti  Ti1170  1  0.60762656  0.16591055  0.37964830  1.0
  Ti  Ti1171  1  0.60762656  0.30876769  0.37964830  1.0
  Ti  Ti1172  1  0.60762656  0.45162484  0.37964830  1.0
  Ti  Ti1173  1  0.60762656  0.59448198  0.37964830  1.0
  Ti  Ti1174  1  0.60762656  0.73733912  0.37964830  1.0
  Ti  Ti1175  1  0.60762656  0.88019627  0.37964830  1.0
  Ti  Ti1176  1  0.71873767  0.02305341  0.37964830  1.0
  Ti  Ti1177  1  0.71873767  0.16591055  0.37964830  1.0
  Ti  Ti1178  1  0.71873767  0.30876769  0.37964830  1.0
  Ti  Ti1179  1  0.71873767  0.45162484  0.37964830  1.0
  Ti  Ti1180  1  0.71873767  0.59448198  0.37964830  1.0
  Ti  Ti1181  1  0.71873767  0.73733912  0.37964830  1.0
  Ti  Ti1182  1  0.71873767  0.88019627  0.37964830  1.0
  Ti  Ti1183  1  0.82984878  0.02305341  0.37964830  1.0
  Ti  Ti1184  1  0.82984878  0.16591055  0.37964830  1.0
  Ti  Ti1185  1  0.82984878  0.30876769  0.37964830  1.0
  Ti  Ti1186  1  0.82984878  0.45162484  0.37964830  1.0
  Ti  Ti1187  1  0.82984878  0.59448198  0.37964830  1.0
  Ti  Ti1188  1  0.82984878  0.73733912  0.37964830  1.0
  Ti  Ti1189  1  0.82984878  0.88019627  0.37964830  1.0
  Ti  Ti1190  1  0.94095989  0.02305341  0.37964830  1.0
  Ti  Ti1191  1  0.94095989  0.16591055  0.37964830  1.0
  Ti  Ti1192  1  0.94095989  0.30876769  0.37964830  1.0
  Ti  Ti1193  1  0.94095989  0.45162484  0.37964830  1.0
  Ti  Ti1194  1  0.94095989  0.59448198  0.37964830  1.0
  Ti  Ti1195  1  0.94095989  0.73733912  0.37964830  1.0
  Ti  Ti1196  1  0.94095989  0.88019627  0.37964830  1.0
  Ti  Ti1197  1  0.07323502  0.03665885  0.42726735  1.0
  Ti  Ti1198  1  0.07323502  0.17951599  0.42726735  1.0
  Ti  Ti1199  1  0.07323502  0.32237314  0.42726735  1.0
  Ti  Ti1200  1  0.07323502  0.46523028  0.42726735  1.0
  Ti  Ti1201  1  0.07323502  0.60808742  0.42726735  1.0
  Ti  Ti1202  1  0.07323502  0.75094457  0.42726735  1.0
  Ti  Ti1203  1  0.07323502  0.89380171  0.42726735  1.0
  Ti  Ti1204  1  0.18434613  0.03665885  0.42726735  1.0
  Ti  Ti1205  1  0.18434613  0.17951599  0.42726735  1.0
  Ti  Ti1206  1  0.18434613  0.32237314  0.42726735  1.0
  Ti  Ti1207  1  0.18434613  0.46523028  0.42726735  1.0
  Ti  Ti1208  1  0.18434613  0.60808742  0.42726735  1.0
  Ti  Ti1209  1  0.18434613  0.75094457  0.42726735  1.0
  Ti  Ti1210  1  0.18434613  0.89380171  0.42726735  1.0
  Ti  Ti1211  1  0.29545724  0.03665885  0.42726735  1.0
  Ti  Ti1212  1  0.29545724  0.17951599  0.42726735  1.0
  Ti  Ti1213  1  0.29545724  0.32237314  0.42726735  1.0
  Ti  Ti1214  1  0.29545724  0.46523028  0.42726735  1.0
  Ti  Ti1215  1  0.29545724  0.60808742  0.42726735  1.0
  Ti  Ti1216  1  0.29545724  0.75094457  0.42726735  1.0
  Ti  Ti1217  1  0.29545724  0.89380171  0.42726735  1.0
  Ti  Ti1218  1  0.40656836  0.03665885  0.42726735  1.0
  Ti  Ti1219  1  0.40656836  0.17951599  0.42726735  1.0
  Ti  Ti1220  1  0.40656836  0.32237314  0.42726735  1.0
  Ti  Ti1221  1  0.40656836  0.46523028  0.42726735  1.0
  Ti  Ti1222  1  0.40656836  0.60808742  0.42726735  1.0
  Ti  Ti1223  1  0.40656836  0.75094457  0.42726735  1.0
  Ti  Ti1224  1  0.40656836  0.89380171  0.42726735  1.0
  Ti  Ti1225  1  0.51767947  0.03665885  0.42726735  1.0
  Ti  Ti1226  1  0.51767947  0.17951599  0.42726735  1.0
  Ti  Ti1227  1  0.51767947  0.32237314  0.42726735  1.0
  Ti  Ti1228  1  0.51767947  0.46523028  0.42726735  1.0
  Ti  Ti1229  1  0.51767947  0.60808742  0.42726735  1.0
  Ti  Ti1230  1  0.51767947  0.75094457  0.42726735  1.0
  Ti  Ti1231  1  0.51767947  0.89380171  0.42726735  1.0
  Ti  Ti1232  1  0.62879058  0.03665885  0.42726735  1.0
  Ti  Ti1233  1  0.62879058  0.17951599  0.42726735  1.0
  Ti  Ti1234  1  0.62879058  0.32237314  0.42726735  1.0
  Ti  Ti1235  1  0.62879058  0.46523028  0.42726735  1.0
  Ti  Ti1236  1  0.62879058  0.60808742  0.42726735  1.0
  Ti  Ti1237  1  0.62879058  0.75094457  0.42726735  1.0
  Ti  Ti1238  1  0.62879058  0.89380171  0.42726735  1.0
  Ti  Ti1239  1  0.73990169  0.03665885  0.42726735  1.0
  Ti  Ti1240  1  0.73990169  0.17951599  0.42726735  1.0
  Ti  Ti1241  1  0.73990169  0.32237314  0.42726735  1.0
  Ti  Ti1242  1  0.73990169  0.46523028  0.42726735  1.0
  Ti  Ti1243  1  0.73990169  0.60808742  0.42726735  1.0
  Ti  Ti1244  1  0.73990169  0.75094457  0.42726735  1.0
  Ti  Ti1245  1  0.73990169  0.89380171  0.42726735  1.0
  Ti  Ti1246  1  0.85101280  0.03665885  0.42726735  1.0
  Ti  Ti1247  1  0.85101280  0.17951599  0.42726735  1.0
  Ti  Ti1248  1  0.85101280  0.32237314  0.42726735  1.0
  Ti  Ti1249  1  0.85101280  0.46523028  0.42726735  1.0
  Ti  Ti1250  1  0.85101280  0.60808742  0.42726735  1.0
  Ti  Ti1251  1  0.85101280  0.75094457  0.42726735  1.0
  Ti  Ti1252  1  0.85101280  0.89380171  0.42726735  1.0
  Ti  Ti1253  1  0.96212391  0.03665885  0.42726735  1.0
  Ti  Ti1254  1  0.96212391  0.17951599  0.42726735  1.0
  Ti  Ti1255  1  0.96212391  0.32237314  0.42726735  1.0
  Ti  Ti1256  1  0.96212391  0.46523028  0.42726735  1.0
  Ti  Ti1257  1  0.96212391  0.60808742  0.42726735  1.0
  Ti  Ti1258  1  0.96212391  0.75094457  0.42726735  1.0
  Ti  Ti1259  1  0.96212391  0.89380171  0.42726735  1.0
  Ti  Ti1260  1  0.09439904  0.05026429  0.47488640  1.0
  Ti  Ti1261  1  0.09439904  0.19312144  0.47488640  1.0
  Ti  Ti1262  1  0.09439904  0.33597858  0.47488640  1.0
  Ti  Ti1263  1  0.09439904  0.47883572  0.47488640  1.0
  Ti  Ti1264  1  0.09439904  0.62169287  0.47488640  1.0
  Ti  Ti1265  1  0.09439904  0.76455001  0.47488640  1.0
  Ti  Ti1266  1  0.09439904  0.90740715  0.47488640  1.0
  Ti  Ti1267  1  0.20551015  0.05026429  0.47488640  1.0
  Ti  Ti1268  1  0.20551015  0.19312144  0.47488640  1.0
  Ti  Ti1269  1  0.20551015  0.33597858  0.47488640  1.0
  Ti  Ti1270  1  0.20551015  0.47883572  0.47488640  1.0
  Ti  Ti1271  1  0.20551015  0.62169287  0.47488640  1.0
  Ti  Ti1272  1  0.20551015  0.76455001  0.47488640  1.0
  Ti  Ti1273  1  0.20551015  0.90740715  0.47488640  1.0
  Ti  Ti1274  1  0.31662127  0.05026429  0.47488640  1.0
  Ti  Ti1275  1  0.31662127  0.19312144  0.47488640  1.0
  Ti  Ti1276  1  0.31662127  0.33597858  0.47488640  1.0
  Ti  Ti1277  1  0.31662127  0.47883572  0.47488640  1.0
  Ti  Ti1278  1  0.31662127  0.62169287  0.47488640  1.0
  Ti  Ti1279  1  0.31662127  0.76455001  0.47488640  1.0
  Ti  Ti1280  1  0.31662127  0.90740715  0.47488640  1.0
  Ti  Ti1281  1  0.42773238  0.05026429  0.47488640  1.0
  Ti  Ti1282  1  0.42773238  0.19312144  0.47488640  1.0
  Ti  Ti1283  1  0.42773238  0.33597858  0.47488640  1.0
  Ti  Ti1284  1  0.42773238  0.47883572  0.47488640  1.0
  Ti  Ti1285  1  0.42773238  0.62169287  0.47488640  1.0
  Ti  Ti1286  1  0.42773238  0.76455001  0.47488640  1.0
  Ti  Ti1287  1  0.42773238  0.90740715  0.47488640  1.0
  Ti  Ti1288  1  0.53884349  0.05026429  0.47488640  1.0
  Ti  Ti1289  1  0.53884349  0.19312144  0.47488640  1.0
  Ti  Ti1290  1  0.53884349  0.33597858  0.47488640  1.0
  Ti  Ti1291  1  0.53884349  0.47883572  0.47488640  1.0
  Ti  Ti1292  1  0.53884349  0.62169287  0.47488640  1.0
  Ti  Ti1293  1  0.53884349  0.76455001  0.47488640  1.0
  Ti  Ti1294  1  0.53884349  0.90740715  0.47488640  1.0
  Ti  Ti1295  1  0.64995460  0.05026429  0.47488640  1.0
  Ti  Ti1296  1  0.64995460  0.19312144  0.47488640  1.0
  Ti  Ti1297  1  0.64995460  0.33597858  0.47488640  1.0
  Ti  Ti1298  1  0.64995460  0.47883572  0.47488640  1.0
  Ti  Ti1299  1  0.64995460  0.62169287  0.47488640  1.0
  Ti  Ti1300  1  0.64995460  0.76455001  0.47488640  1.0
  Ti  Ti1301  1  0.64995460  0.90740715  0.47488640  1.0
  Ti  Ti1302  1  0.76106571  0.05026429  0.47488640  1.0
  Ti  Ti1303  1  0.76106571  0.19312144  0.47488640  1.0
  Ti  Ti1304  1  0.76106571  0.33597858  0.47488640  1.0
  Ti  Ti1305  1  0.76106571  0.47883572  0.47488640  1.0
  Ti  Ti1306  1  0.76106571  0.62169287  0.47488640  1.0
  Ti  Ti1307  1  0.76106571  0.76455001  0.47488640  1.0
  Ti  Ti1308  1  0.76106571  0.90740715  0.47488640  1.0
  Ti  Ti1309  1  0.87217682  0.05026429  0.47488640  1.0
  Ti  Ti1310  1  0.87217682  0.19312144  0.47488640  1.0
  Ti  Ti1311  1  0.87217682  0.33597858  0.47488640  1.0
  Ti  Ti1312  1  0.87217682  0.47883572  0.47488640  1.0
  Ti  Ti1313  1  0.87217682  0.62169287  0.47488640  1.0
  Ti  Ti1314  1  0.87217682  0.76455001  0.47488640  1.0
  Ti  Ti1315  1  0.87217682  0.90740715  0.47488640  1.0
  Ti  Ti1316  1  0.98328793  0.05026429  0.47488640  1.0
  Ti  Ti1317  1  0.98328793  0.19312144  0.47488640  1.0
  Ti  Ti1318  1  0.98328793  0.33597858  0.47488640  1.0
  Ti  Ti1319  1  0.98328793  0.47883572  0.47488640  1.0
  Ti  Ti1320  1  0.98328793  0.62169287  0.47488640  1.0
  Ti  Ti1321  1  0.98328793  0.76455001  0.47488640  1.0
  Ti  Ti1322  1  0.98328793  0.90740715  0.47488640  1.0
  Ti  Ti1323  1  0.03499591  0.09279400  0.45734775  1.0
  Ti  Ti1324  1  0.03499591  0.23565114  0.45734775  1.0
  Ti  Ti1325  1  0.03499591  0.37850829  0.45734775  1.0
  Ti  Ti1326  1  0.03499591  0.52136543  0.45734775  1.0
  Ti  Ti1327  1  0.03499591  0.66422257  0.45734775  1.0
  Ti  Ti1328  1  0.03499591  0.80707971  0.45734775  1.0
  Ti  Ti1329  1  0.03499591  0.94993686  0.45734775  1.0
  Ti  Ti1330  1  0.14610702  0.09279400  0.45734775  1.0
  Ti  Ti1331  1  0.14610702  0.23565114  0.45734775  1.0
  Ti  Ti1332  1  0.14610702  0.37850829  0.45734775  1.0
  Ti  Ti1333  1  0.14610702  0.52136543  0.45734775  1.0
  Ti  Ti1334  1  0.14610702  0.66422257  0.45734775  1.0
  Ti  Ti1335  1  0.14610702  0.80707971  0.45734775  1.0
  Ti  Ti1336  1  0.14610702  0.94993686  0.45734775  1.0
  Ti  Ti1337  1  0.25721813  0.09279400  0.45734775  1.0
  Ti  Ti1338  1  0.25721813  0.23565114  0.45734775  1.0
  Ti  Ti1339  1  0.25721813  0.37850829  0.45734775  1.0
  Ti  Ti1340  1  0.25721813  0.52136543  0.45734775  1.0
  Ti  Ti1341  1  0.25721813  0.66422257  0.45734775  1.0
  Ti  Ti1342  1  0.25721813  0.80707971  0.45734775  1.0
  Ti  Ti1343  1  0.25721813  0.94993686  0.45734775  1.0
  Ti  Ti1344  1  0.36832924  0.09279400  0.45734775  1.0
  Ti  Ti1345  1  0.36832924  0.23565114  0.45734775  1.0
  Ti  Ti1346  1  0.36832924  0.37850829  0.45734775  1.0
  Ti  Ti1347  1  0.36832924  0.52136543  0.45734775  1.0
  Ti  Ti1348  1  0.36832924  0.66422257  0.45734775  1.0
  Ti  Ti1349  1  0.36832924  0.80707971  0.45734775  1.0
  Ti  Ti1350  1  0.36832924  0.94993686  0.45734775  1.0
  Ti  Ti1351  1  0.47944036  0.09279400  0.45734775  1.0
  Ti  Ti1352  1  0.47944036  0.23565114  0.45734775  1.0
  Ti  Ti1353  1  0.47944036  0.37850829  0.45734775  1.0
  Ti  Ti1354  1  0.47944036  0.52136543  0.45734775  1.0
  Ti  Ti1355  1  0.47944036  0.66422257  0.45734775  1.0
  Ti  Ti1356  1  0.47944036  0.80707971  0.45734775  1.0
  Ti  Ti1357  1  0.47944036  0.94993686  0.45734775  1.0
  Ti  Ti1358  1  0.59055147  0.09279400  0.45734775  1.0
  Ti  Ti1359  1  0.59055147  0.23565114  0.45734775  1.0
  Ti  Ti1360  1  0.59055147  0.37850829  0.45734775  1.0
  Ti  Ti1361  1  0.59055147  0.52136543  0.45734775  1.0
  Ti  Ti1362  1  0.59055147  0.66422257  0.45734775  1.0
  Ti  Ti1363  1  0.59055147  0.80707971  0.45734775  1.0
  Ti  Ti1364  1  0.59055147  0.94993686  0.45734775  1.0
  Ti  Ti1365  1  0.70166258  0.09279400  0.45734775  1.0
  Ti  Ti1366  1  0.70166258  0.23565114  0.45734775  1.0
  Ti  Ti1367  1  0.70166258  0.37850829  0.45734775  1.0
  Ti  Ti1368  1  0.70166258  0.52136543  0.45734775  1.0
  Ti  Ti1369  1  0.70166258  0.66422257  0.45734775  1.0
  Ti  Ti1370  1  0.70166258  0.80707971  0.45734775  1.0
  Ti  Ti1371  1  0.70166258  0.94993686  0.45734775  1.0
  Ti  Ti1372  1  0.81277369  0.09279400  0.45734775  1.0
  Ti  Ti1373  1  0.81277369  0.23565114  0.45734775  1.0
  Ti  Ti1374  1  0.81277369  0.37850829  0.45734775  1.0
  Ti  Ti1375  1  0.81277369  0.52136543  0.45734775  1.0
  Ti  Ti1376  1  0.81277369  0.66422257  0.45734775  1.0
  Ti  Ti1377  1  0.81277369  0.80707971  0.45734775  1.0
  Ti  Ti1378  1  0.81277369  0.94993686  0.45734775  1.0
  Ti  Ti1379  1  0.92388480  0.09279400  0.45734775  1.0
  Ti  Ti1380  1  0.92388480  0.23565114  0.45734775  1.0
  Ti  Ti1381  1  0.92388480  0.37850829  0.45734775  1.0
  Ti  Ti1382  1  0.92388480  0.52136543  0.45734775  1.0
  Ti  Ti1383  1  0.92388480  0.66422257  0.45734775  1.0
  Ti  Ti1384  1  0.92388480  0.80707971  0.45734775  1.0
  Ti  Ti1385  1  0.92388480  0.94993686  0.45734775  1.0
  Ti  Ti1386  1  0.10377898  0.06558312  0.36210965  1.0
  Ti  Ti1387  1  0.10377898  0.20844026  0.36210965  1.0
  Ti  Ti1388  1  0.10377898  0.35129740  0.36210965  1.0
  Ti  Ti1389  1  0.10377898  0.49415454  0.36210965  1.0
  Ti  Ti1390  1  0.10377898  0.63701169  0.36210965  1.0
  Ti  Ti1391  1  0.10377898  0.77986883  0.36210965  1.0
  Ti  Ti1392  1  0.10377898  0.92272597  0.36210965  1.0
  Ti  Ti1393  1  0.21489009  0.06558312  0.36210965  1.0
  Ti  Ti1394  1  0.21489009  0.20844026  0.36210965  1.0
  Ti  Ti1395  1  0.21489009  0.35129740  0.36210965  1.0
  Ti  Ti1396  1  0.21489009  0.49415454  0.36210965  1.0
  Ti  Ti1397  1  0.21489009  0.63701169  0.36210965  1.0
  Ti  Ti1398  1  0.21489009  0.77986883  0.36210965  1.0
  Ti  Ti1399  1  0.21489009  0.92272597  0.36210965  1.0
  Ti  Ti1400  1  0.32600120  0.06558312  0.36210965  1.0
  Ti  Ti1401  1  0.32600120  0.20844026  0.36210965  1.0
  Ti  Ti1402  1  0.32600120  0.35129740  0.36210965  1.0
  Ti  Ti1403  1  0.32600120  0.49415454  0.36210965  1.0
  Ti  Ti1404  1  0.32600120  0.63701169  0.36210965  1.0
  Ti  Ti1405  1  0.32600120  0.77986883  0.36210965  1.0
  Ti  Ti1406  1  0.32600120  0.92272597  0.36210965  1.0
  Ti  Ti1407  1  0.43711231  0.06558312  0.36210965  1.0
  Ti  Ti1408  1  0.43711231  0.20844026  0.36210965  1.0
  Ti  Ti1409  1  0.43711231  0.35129740  0.36210965  1.0
  Ti  Ti1410  1  0.43711231  0.49415454  0.36210965  1.0
  Ti  Ti1411  1  0.43711231  0.63701169  0.36210965  1.0
  Ti  Ti1412  1  0.43711231  0.77986883  0.36210965  1.0
  Ti  Ti1413  1  0.43711231  0.92272597  0.36210965  1.0
  Ti  Ti1414  1  0.54822342  0.06558312  0.36210965  1.0
  Ti  Ti1415  1  0.54822342  0.20844026  0.36210965  1.0
  Ti  Ti1416  1  0.54822342  0.35129740  0.36210965  1.0
  Ti  Ti1417  1  0.54822342  0.49415454  0.36210965  1.0
  Ti  Ti1418  1  0.54822342  0.63701169  0.36210965  1.0
  Ti  Ti1419  1  0.54822342  0.77986883  0.36210965  1.0
  Ti  Ti1420  1  0.54822342  0.92272597  0.36210965  1.0
  Ti  Ti1421  1  0.65933453  0.06558312  0.36210965  1.0
  Ti  Ti1422  1  0.65933453  0.20844026  0.36210965  1.0
  Ti  Ti1423  1  0.65933453  0.35129740  0.36210965  1.0
  Ti  Ti1424  1  0.65933453  0.49415454  0.36210965  1.0
  Ti  Ti1425  1  0.65933453  0.63701169  0.36210965  1.0
  Ti  Ti1426  1  0.65933453  0.77986883  0.36210965  1.0
  Ti  Ti1427  1  0.65933453  0.92272597  0.36210965  1.0
  Ti  Ti1428  1  0.77044565  0.06558312  0.36210965  1.0
  Ti  Ti1429  1  0.77044565  0.20844026  0.36210965  1.0
  Ti  Ti1430  1  0.77044565  0.35129740  0.36210965  1.0
  Ti  Ti1431  1  0.77044565  0.49415454  0.36210965  1.0
  Ti  Ti1432  1  0.77044565  0.63701169  0.36210965  1.0
  Ti  Ti1433  1  0.77044565  0.77986883  0.36210965  1.0
  Ti  Ti1434  1  0.77044565  0.92272597  0.36210965  1.0
  Ti  Ti1435  1  0.88155676  0.06558312  0.36210965  1.0
  Ti  Ti1436  1  0.88155676  0.20844026  0.36210965  1.0
  Ti  Ti1437  1  0.88155676  0.35129740  0.36210965  1.0
  Ti  Ti1438  1  0.88155676  0.49415454  0.36210965  1.0
  Ti  Ti1439  1  0.88155676  0.63701169  0.36210965  1.0
  Ti  Ti1440  1  0.88155676  0.77986883  0.36210965  1.0
  Ti  Ti1441  1  0.88155676  0.92272597  0.36210965  1.0
  Ti  Ti1442  1  0.99266787  0.06558312  0.36210965  1.0
  Ti  Ti1443  1  0.99266787  0.20844026  0.36210965  1.0
  Ti  Ti1444  1  0.99266787  0.35129740  0.36210965  1.0
  Ti  Ti1445  1  0.99266787  0.49415454  0.36210965  1.0
  Ti  Ti1446  1  0.99266787  0.63701169  0.36210965  1.0
  Ti  Ti1447  1  0.99266787  0.77986883  0.36210965  1.0
  Ti  Ti1448  1  0.99266787  0.92272597  0.36210965  1.0
  Ti  Ti1449  1  0.01383189  0.07918856  0.40972870  1.0
  Ti  Ti1450  1  0.01383189  0.22204570  0.40972870  1.0
  Ti  Ti1451  1  0.01383189  0.36490284  0.40972870  1.0
  Ti  Ti1452  1  0.01383189  0.50775999  0.40972870  1.0
  Ti  Ti1453  1  0.01383189  0.65061713  0.40972870  1.0
  Ti  Ti1454  1  0.01383189  0.79347427  0.40972870  1.0
  Ti  Ti1455  1  0.01383189  0.93633141  0.40972870  1.0
  Ti  Ti1456  1  0.12494300  0.07918856  0.40972870  1.0
  Ti  Ti1457  1  0.12494300  0.22204570  0.40972870  1.0
  Ti  Ti1458  1  0.12494300  0.36490284  0.40972870  1.0
  Ti  Ti1459  1  0.12494300  0.50775999  0.40972870  1.0
  Ti  Ti1460  1  0.12494300  0.65061713  0.40972870  1.0
  Ti  Ti1461  1  0.12494300  0.79347427  0.40972870  1.0
  Ti  Ti1462  1  0.12494300  0.93633141  0.40972870  1.0
  Ti  Ti1463  1  0.23605411  0.07918856  0.40972870  1.0
  Ti  Ti1464  1  0.23605411  0.22204570  0.40972870  1.0
  Ti  Ti1465  1  0.23605411  0.36490284  0.40972870  1.0
  Ti  Ti1466  1  0.23605411  0.50775999  0.40972870  1.0
  Ti  Ti1467  1  0.23605411  0.65061713  0.40972870  1.0
  Ti  Ti1468  1  0.23605411  0.79347427  0.40972870  1.0
  Ti  Ti1469  1  0.23605411  0.93633141  0.40972870  1.0
  Ti  Ti1470  1  0.34716522  0.07918856  0.40972870  1.0
  Ti  Ti1471  1  0.34716522  0.22204570  0.40972870  1.0
  Ti  Ti1472  1  0.34716522  0.36490284  0.40972870  1.0
  Ti  Ti1473  1  0.34716522  0.50775999  0.40972870  1.0
  Ti  Ti1474  1  0.34716522  0.65061713  0.40972870  1.0
  Ti  Ti1475  1  0.34716522  0.79347427  0.40972870  1.0
  Ti  Ti1476  1  0.34716522  0.93633141  0.40972870  1.0
  Ti  Ti1477  1  0.45827633  0.07918856  0.40972870  1.0
  Ti  Ti1478  1  0.45827633  0.22204570  0.40972870  1.0
  Ti  Ti1479  1  0.45827633  0.36490284  0.40972870  1.0
  Ti  Ti1480  1  0.45827633  0.50775999  0.40972870  1.0
  Ti  Ti1481  1  0.45827633  0.65061713  0.40972870  1.0
  Ti  Ti1482  1  0.45827633  0.79347427  0.40972870  1.0
  Ti  Ti1483  1  0.45827633  0.93633141  0.40972870  1.0
  Ti  Ti1484  1  0.56938745  0.07918856  0.40972870  1.0
  Ti  Ti1485  1  0.56938745  0.22204570  0.40972870  1.0
  Ti  Ti1486  1  0.56938745  0.36490284  0.40972870  1.0
  Ti  Ti1487  1  0.56938745  0.50775999  0.40972870  1.0
  Ti  Ti1488  1  0.56938745  0.65061713  0.40972870  1.0
  Ti  Ti1489  1  0.56938745  0.79347427  0.40972870  1.0
  Ti  Ti1490  1  0.56938745  0.93633141  0.40972870  1.0
  Ti  Ti1491  1  0.68049856  0.07918856  0.40972870  1.0
  Ti  Ti1492  1  0.68049856  0.22204570  0.40972870  1.0
  Ti  Ti1493  1  0.68049856  0.36490284  0.40972870  1.0
  Ti  Ti1494  1  0.68049856  0.50775999  0.40972870  1.0
  Ti  Ti1495  1  0.68049856  0.65061713  0.40972870  1.0
  Ti  Ti1496  1  0.68049856  0.79347427  0.40972870  1.0
  Ti  Ti1497  1  0.68049856  0.93633141  0.40972870  1.0
  Ti  Ti1498  1  0.79160967  0.07918856  0.40972870  1.0
  Ti  Ti1499  1  0.79160967  0.22204570  0.40972870  1.0
  Ti  Ti1500  1  0.79160967  0.36490284  0.40972870  1.0
  Ti  Ti1501  1  0.79160967  0.50775999  0.40972870  1.0
  Ti  Ti1502  1  0.79160967  0.65061713  0.40972870  1.0
  Ti  Ti1503  1  0.79160967  0.79347427  0.40972870  1.0
  Ti  Ti1504  1  0.79160967  0.93633141  0.40972870  1.0
  Ti  Ti1505  1  0.90272078  0.07918856  0.40972870  1.0
  Ti  Ti1506  1  0.90272078  0.22204570  0.40972870  1.0
  Ti  Ti1507  1  0.90272078  0.36490284  0.40972870  1.0
  Ti  Ti1508  1  0.90272078  0.50775999  0.40972870  1.0
  Ti  Ti1509  1  0.90272078  0.65061713  0.40972870  1.0
  Ti  Ti1510  1  0.90272078  0.79347427  0.40972870  1.0
  Ti  Ti1511  1  0.90272078  0.93633141  0.40972870  1.0
  Ti  Ti1512  1  0.07412846  0.04905966  0.55427758  1.0
  Ti  Ti1513  1  0.07412846  0.19191681  0.55427758  1.0
  Ti  Ti1514  1  0.07412846  0.33477395  0.55427758  1.0
  Ti  Ti1515  1  0.07412846  0.47763109  0.55427758  1.0
  Ti  Ti1516  1  0.07412846  0.62048824  0.55427758  1.0
  Ti  Ti1517  1  0.07412846  0.76334538  0.55427758  1.0
  Ti  Ti1518  1  0.07412846  0.90620252  0.55427758  1.0
  Ti  Ti1519  1  0.18523957  0.04905966  0.55427758  1.0
  Ti  Ti1520  1  0.18523957  0.19191681  0.55427758  1.0
  Ti  Ti1521  1  0.18523957  0.33477395  0.55427758  1.0
  Ti  Ti1522  1  0.18523957  0.47763109  0.55427758  1.0
  Ti  Ti1523  1  0.18523957  0.62048824  0.55427758  1.0
  Ti  Ti1524  1  0.18523957  0.76334538  0.55427758  1.0
  Ti  Ti1525  1  0.18523957  0.90620252  0.55427758  1.0
  Ti  Ti1526  1  0.29635068  0.04905966  0.55427758  1.0
  Ti  Ti1527  1  0.29635068  0.19191681  0.55427758  1.0
  Ti  Ti1528  1  0.29635068  0.33477395  0.55427758  1.0
  Ti  Ti1529  1  0.29635068  0.47763109  0.55427758  1.0
  Ti  Ti1530  1  0.29635068  0.62048824  0.55427758  1.0
  Ti  Ti1531  1  0.29635068  0.76334538  0.55427758  1.0
  Ti  Ti1532  1  0.29635068  0.90620252  0.55427758  1.0
  Ti  Ti1533  1  0.40746179  0.04905966  0.55427758  1.0
  Ti  Ti1534  1  0.40746179  0.19191681  0.55427758  1.0
  Ti  Ti1535  1  0.40746179  0.33477395  0.55427758  1.0
  Ti  Ti1536  1  0.40746179  0.47763109  0.55427758  1.0
  Ti  Ti1537  1  0.40746179  0.62048824  0.55427758  1.0
  Ti  Ti1538  1  0.40746179  0.76334538  0.55427758  1.0
  Ti  Ti1539  1  0.40746179  0.90620252  0.55427758  1.0
  Ti  Ti1540  1  0.51857290  0.04905966  0.55427758  1.0
  Ti  Ti1541  1  0.51857290  0.19191681  0.55427758  1.0
  Ti  Ti1542  1  0.51857290  0.33477395  0.55427758  1.0
  Ti  Ti1543  1  0.51857290  0.47763109  0.55427758  1.0
  Ti  Ti1544  1  0.51857290  0.62048824  0.55427758  1.0
  Ti  Ti1545  1  0.51857290  0.76334538  0.55427758  1.0
  Ti  Ti1546  1  0.51857290  0.90620252  0.55427758  1.0
  Ti  Ti1547  1  0.62968401  0.04905966  0.55427758  1.0
  Ti  Ti1548  1  0.62968401  0.19191681  0.55427758  1.0
  Ti  Ti1549  1  0.62968401  0.33477395  0.55427758  1.0
  Ti  Ti1550  1  0.62968401  0.47763109  0.55427758  1.0
  Ti  Ti1551  1  0.62968401  0.62048824  0.55427758  1.0
  Ti  Ti1552  1  0.62968401  0.76334538  0.55427758  1.0
  Ti  Ti1553  1  0.62968401  0.90620252  0.55427758  1.0
  Ti  Ti1554  1  0.74079512  0.04905966  0.55427758  1.0
  Ti  Ti1555  1  0.74079512  0.19191681  0.55427758  1.0
  Ti  Ti1556  1  0.74079512  0.33477395  0.55427758  1.0
  Ti  Ti1557  1  0.74079512  0.47763109  0.55427758  1.0
  Ti  Ti1558  1  0.74079512  0.62048824  0.55427758  1.0
  Ti  Ti1559  1  0.74079512  0.76334538  0.55427758  1.0
  Ti  Ti1560  1  0.74079512  0.90620252  0.55427758  1.0
  Ti  Ti1561  1  0.85190623  0.04905966  0.55427758  1.0
  Ti  Ti1562  1  0.85190623  0.19191681  0.55427758  1.0
  Ti  Ti1563  1  0.85190623  0.33477395  0.55427758  1.0
  Ti  Ti1564  1  0.85190623  0.47763109  0.55427758  1.0
  Ti  Ti1565  1  0.85190623  0.62048824  0.55427758  1.0
  Ti  Ti1566  1  0.85190623  0.76334538  0.55427758  1.0
  Ti  Ti1567  1  0.85190623  0.90620252  0.55427758  1.0
  Ti  Ti1568  1  0.96301735  0.04905966  0.55427758  1.0
  Ti  Ti1569  1  0.96301735  0.19191681  0.55427758  1.0
  Ti  Ti1570  1  0.96301735  0.33477395  0.55427758  1.0
  Ti  Ti1571  1  0.96301735  0.47763109  0.55427758  1.0
  Ti  Ti1572  1  0.96301735  0.62048824  0.55427758  1.0
  Ti  Ti1573  1  0.96301735  0.76334538  0.55427758  1.0
  Ti  Ti1574  1  0.96301735  0.90620252  0.55427758  1.0
  Ti  Ti1575  1  0.09529248  0.06266511  0.60189663  1.0
  Ti  Ti1576  1  0.09529248  0.20552225  0.60189663  1.0
  Ti  Ti1577  1  0.09529248  0.34837939  0.60189663  1.0
  Ti  Ti1578  1  0.09529248  0.49123654  0.60189663  1.0
  Ti  Ti1579  1  0.09529248  0.63409368  0.60189663  1.0
  Ti  Ti1580  1  0.09529248  0.77695082  0.60189663  1.0
  Ti  Ti1581  1  0.09529248  0.91980796  0.60189663  1.0
  Ti  Ti1582  1  0.20640359  0.06266511  0.60189663  1.0
  Ti  Ti1583  1  0.20640359  0.20552225  0.60189663  1.0
  Ti  Ti1584  1  0.20640359  0.34837939  0.60189663  1.0
  Ti  Ti1585  1  0.20640359  0.49123654  0.60189663  1.0
  Ti  Ti1586  1  0.20640359  0.63409368  0.60189663  1.0
  Ti  Ti1587  1  0.20640359  0.77695082  0.60189663  1.0
  Ti  Ti1588  1  0.20640359  0.91980796  0.60189663  1.0
  Ti  Ti1589  1  0.31751470  0.06266511  0.60189663  1.0
  Ti  Ti1590  1  0.31751470  0.20552225  0.60189663  1.0
  Ti  Ti1591  1  0.31751470  0.34837939  0.60189663  1.0
  Ti  Ti1592  1  0.31751470  0.49123654  0.60189663  1.0
  Ti  Ti1593  1  0.31751470  0.63409368  0.60189663  1.0
  Ti  Ti1594  1  0.31751470  0.77695082  0.60189663  1.0
  Ti  Ti1595  1  0.31751470  0.91980796  0.60189663  1.0
  Ti  Ti1596  1  0.42862581  0.06266511  0.60189663  1.0
  Ti  Ti1597  1  0.42862581  0.20552225  0.60189663  1.0
  Ti  Ti1598  1  0.42862581  0.34837939  0.60189663  1.0
  Ti  Ti1599  1  0.42862581  0.49123654  0.60189663  1.0
  Ti  Ti1600  1  0.42862581  0.63409368  0.60189663  1.0
  Ti  Ti1601  1  0.42862581  0.77695082  0.60189663  1.0
  Ti  Ti1602  1  0.42862581  0.91980796  0.60189663  1.0
  Ti  Ti1603  1  0.53973692  0.06266511  0.60189663  1.0
  Ti  Ti1604  1  0.53973692  0.20552225  0.60189663  1.0
  Ti  Ti1605  1  0.53973692  0.34837939  0.60189663  1.0
  Ti  Ti1606  1  0.53973692  0.49123654  0.60189663  1.0
  Ti  Ti1607  1  0.53973692  0.63409368  0.60189663  1.0
  Ti  Ti1608  1  0.53973692  0.77695082  0.60189663  1.0
  Ti  Ti1609  1  0.53973692  0.91980796  0.60189663  1.0
  Ti  Ti1610  1  0.65084803  0.06266511  0.60189663  1.0
  Ti  Ti1611  1  0.65084803  0.20552225  0.60189663  1.0
  Ti  Ti1612  1  0.65084803  0.34837939  0.60189663  1.0
  Ti  Ti1613  1  0.65084803  0.49123654  0.60189663  1.0
  Ti  Ti1614  1  0.65084803  0.63409368  0.60189663  1.0
  Ti  Ti1615  1  0.65084803  0.77695082  0.60189663  1.0
  Ti  Ti1616  1  0.65084803  0.91980796  0.60189663  1.0
  Ti  Ti1617  1  0.76195914  0.06266511  0.60189663  1.0
  Ti  Ti1618  1  0.76195914  0.20552225  0.60189663  1.0
  Ti  Ti1619  1  0.76195914  0.34837939  0.60189663  1.0
  Ti  Ti1620  1  0.76195914  0.49123654  0.60189663  1.0
  Ti  Ti1621  1  0.76195914  0.63409368  0.60189663  1.0
  Ti  Ti1622  1  0.76195914  0.77695082  0.60189663  1.0
  Ti  Ti1623  1  0.76195914  0.91980796  0.60189663  1.0
  Ti  Ti1624  1  0.87307026  0.06266511  0.60189663  1.0
  Ti  Ti1625  1  0.87307026  0.20552225  0.60189663  1.0
  Ti  Ti1626  1  0.87307026  0.34837939  0.60189663  1.0
  Ti  Ti1627  1  0.87307026  0.49123654  0.60189663  1.0
  Ti  Ti1628  1  0.87307026  0.63409368  0.60189663  1.0
  Ti  Ti1629  1  0.87307026  0.77695082  0.60189663  1.0
  Ti  Ti1630  1  0.87307026  0.91980796  0.60189663  1.0
  Ti  Ti1631  1  0.98418137  0.06266511  0.60189663  1.0
  Ti  Ti1632  1  0.98418137  0.20552225  0.60189663  1.0
  Ti  Ti1633  1  0.98418137  0.34837939  0.60189663  1.0
  Ti  Ti1634  1  0.98418137  0.49123654  0.60189663  1.0
  Ti  Ti1635  1  0.98418137  0.63409368  0.60189663  1.0
  Ti  Ti1636  1  0.98418137  0.77695082  0.60189663  1.0
  Ti  Ti1637  1  0.98418137  0.91980796  0.60189663  1.0
  Ti  Ti1638  1  0.05296444  0.03545422  0.50665853  1.0
  Ti  Ti1639  1  0.05296444  0.17831137  0.50665853  1.0
  Ti  Ti1640  1  0.05296444  0.32116851  0.50665853  1.0
  Ti  Ti1641  1  0.05296444  0.46402565  0.50665853  1.0
  Ti  Ti1642  1  0.05296444  0.60688279  0.50665853  1.0
  Ti  Ti1643  1  0.05296444  0.74973994  0.50665853  1.0
  Ti  Ti1644  1  0.05296444  0.89259708  0.50665853  1.0
  Ti  Ti1645  1  0.16407555  0.03545422  0.50665853  1.0
  Ti  Ti1646  1  0.16407555  0.17831137  0.50665853  1.0
  Ti  Ti1647  1  0.16407555  0.32116851  0.50665853  1.0
  Ti  Ti1648  1  0.16407555  0.46402565  0.50665853  1.0
  Ti  Ti1649  1  0.16407555  0.60688279  0.50665853  1.0
  Ti  Ti1650  1  0.16407555  0.74973994  0.50665853  1.0
  Ti  Ti1651  1  0.16407555  0.89259708  0.50665853  1.0
  Ti  Ti1652  1  0.27518666  0.03545422  0.50665853  1.0
  Ti  Ti1653  1  0.27518666  0.17831137  0.50665853  1.0
  Ti  Ti1654  1  0.27518666  0.32116851  0.50665853  1.0
  Ti  Ti1655  1  0.27518666  0.46402565  0.50665853  1.0
  Ti  Ti1656  1  0.27518666  0.60688279  0.50665853  1.0
  Ti  Ti1657  1  0.27518666  0.74973994  0.50665853  1.0
  Ti  Ti1658  1  0.27518666  0.89259708  0.50665853  1.0
  Ti  Ti1659  1  0.38629777  0.03545422  0.50665853  1.0
  Ti  Ti1660  1  0.38629777  0.17831137  0.50665853  1.0
  Ti  Ti1661  1  0.38629777  0.32116851  0.50665853  1.0
  Ti  Ti1662  1  0.38629777  0.46402565  0.50665853  1.0
  Ti  Ti1663  1  0.38629777  0.60688279  0.50665853  1.0
  Ti  Ti1664  1  0.38629777  0.74973994  0.50665853  1.0
  Ti  Ti1665  1  0.38629777  0.89259708  0.50665853  1.0
  Ti  Ti1666  1  0.49740888  0.03545422  0.50665853  1.0
  Ti  Ti1667  1  0.49740888  0.17831137  0.50665853  1.0
  Ti  Ti1668  1  0.49740888  0.32116851  0.50665853  1.0
  Ti  Ti1669  1  0.49740888  0.46402565  0.50665853  1.0
  Ti  Ti1670  1  0.49740888  0.60688279  0.50665853  1.0
  Ti  Ti1671  1  0.49740888  0.74973994  0.50665853  1.0
  Ti  Ti1672  1  0.49740888  0.89259708  0.50665853  1.0
  Ti  Ti1673  1  0.60851999  0.03545422  0.50665853  1.0
  Ti  Ti1674  1  0.60851999  0.17831137  0.50665853  1.0
  Ti  Ti1675  1  0.60851999  0.32116851  0.50665853  1.0
  Ti  Ti1676  1  0.60851999  0.46402565  0.50665853  1.0
  Ti  Ti1677  1  0.60851999  0.60688279  0.50665853  1.0
  Ti  Ti1678  1  0.60851999  0.74973994  0.50665853  1.0
  Ti  Ti1679  1  0.60851999  0.89259708  0.50665853  1.0
  Ti  Ti1680  1  0.71963110  0.03545422  0.50665853  1.0
  Ti  Ti1681  1  0.71963110  0.17831137  0.50665853  1.0
  Ti  Ti1682  1  0.71963110  0.32116851  0.50665853  1.0
  Ti  Ti1683  1  0.71963110  0.46402565  0.50665853  1.0
  Ti  Ti1684  1  0.71963110  0.60688279  0.50665853  1.0
  Ti  Ti1685  1  0.71963110  0.74973994  0.50665853  1.0
  Ti  Ti1686  1  0.71963110  0.89259708  0.50665853  1.0
  Ti  Ti1687  1  0.83074221  0.03545422  0.50665853  1.0
  Ti  Ti1688  1  0.83074221  0.17831137  0.50665853  1.0
  Ti  Ti1689  1  0.83074221  0.32116851  0.50665853  1.0
  Ti  Ti1690  1  0.83074221  0.46402565  0.50665853  1.0
  Ti  Ti1691  1  0.83074221  0.60688279  0.50665853  1.0
  Ti  Ti1692  1  0.83074221  0.74973994  0.50665853  1.0
  Ti  Ti1693  1  0.83074221  0.89259708  0.50665853  1.0
  Ti  Ti1694  1  0.94185332  0.03545422  0.50665853  1.0
  Ti  Ti1695  1  0.94185332  0.17831137  0.50665853  1.0
  Ti  Ti1696  1  0.94185332  0.32116851  0.50665853  1.0
  Ti  Ti1697  1  0.94185332  0.46402565  0.50665853  1.0
  Ti  Ti1698  1  0.94185332  0.60688279  0.50665853  1.0
  Ti  Ti1699  1  0.94185332  0.74973994  0.50665853  1.0
  Ti  Ti1700  1  0.94185332  0.89259708  0.50665853  1.0
  Ti  Ti1701  1  0.02881147  0.00556325  0.56843276  1.0
  Ti  Ti1702  1  0.02881147  0.14842040  0.56843276  1.0
  Ti  Ti1703  1  0.02881147  0.29127754  0.56843276  1.0
  Ti  Ti1704  1  0.02881147  0.43413468  0.56843276  1.0
  Ti  Ti1705  1  0.02881147  0.57699183  0.56843276  1.0
  Ti  Ti1706  1  0.02881147  0.71984897  0.56843276  1.0
  Ti  Ti1707  1  0.02881147  0.86270611  0.56843276  1.0
  Ti  Ti1708  1  0.13992258  0.00556325  0.56843276  1.0
  Ti  Ti1709  1  0.13992258  0.14842040  0.56843276  1.0
  Ti  Ti1710  1  0.13992258  0.29127754  0.56843276  1.0
  Ti  Ti1711  1  0.13992258  0.43413468  0.56843276  1.0
  Ti  Ti1712  1  0.13992258  0.57699183  0.56843276  1.0
  Ti  Ti1713  1  0.13992258  0.71984897  0.56843276  1.0
  Ti  Ti1714  1  0.13992258  0.86270611  0.56843276  1.0
  Ti  Ti1715  1  0.25103369  0.00556325  0.56843276  1.0
  Ti  Ti1716  1  0.25103369  0.14842040  0.56843276  1.0
  Ti  Ti1717  1  0.25103369  0.29127754  0.56843276  1.0
  Ti  Ti1718  1  0.25103369  0.43413468  0.56843276  1.0
  Ti  Ti1719  1  0.25103369  0.57699183  0.56843276  1.0
  Ti  Ti1720  1  0.25103369  0.71984897  0.56843276  1.0
  Ti  Ti1721  1  0.25103369  0.86270611  0.56843276  1.0
  Ti  Ti1722  1  0.36214480  0.00556325  0.56843276  1.0
  Ti  Ti1723  1  0.36214480  0.14842040  0.56843276  1.0
  Ti  Ti1724  1  0.36214480  0.29127754  0.56843276  1.0
  Ti  Ti1725  1  0.36214480  0.43413468  0.56843276  1.0
  Ti  Ti1726  1  0.36214480  0.57699183  0.56843276  1.0
  Ti  Ti1727  1  0.36214480  0.71984897  0.56843276  1.0
  Ti  Ti1728  1  0.36214480  0.86270611  0.56843276  1.0
  Ti  Ti1729  1  0.47325592  0.00556325  0.56843276  1.0
  Ti  Ti1730  1  0.47325592  0.14842040  0.56843276  1.0
  Ti  Ti1731  1  0.47325592  0.29127754  0.56843276  1.0
  Ti  Ti1732  1  0.47325592  0.43413468  0.56843276  1.0
  Ti  Ti1733  1  0.47325592  0.57699183  0.56843276  1.0
  Ti  Ti1734  1  0.47325592  0.71984897  0.56843276  1.0
  Ti  Ti1735  1  0.47325592  0.86270611  0.56843276  1.0
  Ti  Ti1736  1  0.58436703  0.00556325  0.56843276  1.0
  Ti  Ti1737  1  0.58436703  0.14842040  0.56843276  1.0
  Ti  Ti1738  1  0.58436703  0.29127754  0.56843276  1.0
  Ti  Ti1739  1  0.58436703  0.43413468  0.56843276  1.0
  Ti  Ti1740  1  0.58436703  0.57699183  0.56843276  1.0
  Ti  Ti1741  1  0.58436703  0.71984897  0.56843276  1.0
  Ti  Ti1742  1  0.58436703  0.86270611  0.56843276  1.0
  Ti  Ti1743  1  0.69547814  0.00556325  0.56843276  1.0
  Ti  Ti1744  1  0.69547814  0.14842040  0.56843276  1.0
  Ti  Ti1745  1  0.69547814  0.29127754  0.56843276  1.0
  Ti  Ti1746  1  0.69547814  0.43413468  0.56843276  1.0
  Ti  Ti1747  1  0.69547814  0.57699183  0.56843276  1.0
  Ti  Ti1748  1  0.69547814  0.71984897  0.56843276  1.0
  Ti  Ti1749  1  0.69547814  0.86270611  0.56843276  1.0
  Ti  Ti1750  1  0.80658925  0.00556325  0.56843276  1.0
  Ti  Ti1751  1  0.80658925  0.14842040  0.56843276  1.0
  Ti  Ti1752  1  0.80658925  0.29127754  0.56843276  1.0
  Ti  Ti1753  1  0.80658925  0.43413468  0.56843276  1.0
  Ti  Ti1754  1  0.80658925  0.57699183  0.56843276  1.0
  Ti  Ti1755  1  0.80658925  0.71984897  0.56843276  1.0
  Ti  Ti1756  1  0.80658925  0.86270611  0.56843276  1.0
  Ti  Ti1757  1  0.91770036  0.00556325  0.56843276  1.0
  Ti  Ti1758  1  0.91770036  0.14842040  0.56843276  1.0
  Ti  Ti1759  1  0.91770036  0.29127754  0.56843276  1.0
  Ti  Ti1760  1  0.91770036  0.43413468  0.56843276  1.0
  Ti  Ti1761  1  0.91770036  0.57699183  0.56843276  1.0
  Ti  Ti1762  1  0.91770036  0.71984897  0.56843276  1.0
  Ti  Ti1763  1  0.91770036  0.86270611  0.56843276  1.0
  Ti  Ti1764  1  0.04997549  0.01916870  0.61605181  1.0
  Ti  Ti1765  1  0.04997549  0.16202584  0.61605181  1.0
  Ti  Ti1766  1  0.04997549  0.30488298  0.61605181  1.0
  Ti  Ti1767  1  0.04997549  0.44774012  0.61605181  1.0
  Ti  Ti1768  1  0.04997549  0.59059727  0.61605181  1.0
  Ti  Ti1769  1  0.04997549  0.73345441  0.61605181  1.0
  Ti  Ti1770  1  0.04997549  0.87631155  0.61605181  1.0
  Ti  Ti1771  1  0.16108660  0.01916870  0.61605181  1.0
  Ti  Ti1772  1  0.16108660  0.16202584  0.61605181  1.0
  Ti  Ti1773  1  0.16108660  0.30488298  0.61605181  1.0
  Ti  Ti1774  1  0.16108660  0.44774012  0.61605181  1.0
  Ti  Ti1775  1  0.16108660  0.59059727  0.61605181  1.0
  Ti  Ti1776  1  0.16108660  0.73345441  0.61605181  1.0
  Ti  Ti1777  1  0.16108660  0.87631155  0.61605181  1.0
  Ti  Ti1778  1  0.27219771  0.01916870  0.61605181  1.0
  Ti  Ti1779  1  0.27219771  0.16202584  0.61605181  1.0
  Ti  Ti1780  1  0.27219771  0.30488298  0.61605181  1.0
  Ti  Ti1781  1  0.27219771  0.44774012  0.61605181  1.0
  Ti  Ti1782  1  0.27219771  0.59059727  0.61605181  1.0
  Ti  Ti1783  1  0.27219771  0.73345441  0.61605181  1.0
  Ti  Ti1784  1  0.27219771  0.87631155  0.61605181  1.0
  Ti  Ti1785  1  0.38330883  0.01916870  0.61605181  1.0
  Ti  Ti1786  1  0.38330883  0.16202584  0.61605181  1.0
  Ti  Ti1787  1  0.38330883  0.30488298  0.61605181  1.0
  Ti  Ti1788  1  0.38330883  0.44774012  0.61605181  1.0
  Ti  Ti1789  1  0.38330883  0.59059727  0.61605181  1.0
  Ti  Ti1790  1  0.38330883  0.73345441  0.61605181  1.0
  Ti  Ti1791  1  0.38330883  0.87631155  0.61605181  1.0
  Ti  Ti1792  1  0.49441994  0.01916870  0.61605181  1.0
  Ti  Ti1793  1  0.49441994  0.16202584  0.61605181  1.0
  Ti  Ti1794  1  0.49441994  0.30488298  0.61605181  1.0
  Ti  Ti1795  1  0.49441994  0.44774012  0.61605181  1.0
  Ti  Ti1796  1  0.49441994  0.59059727  0.61605181  1.0
  Ti  Ti1797  1  0.49441994  0.73345441  0.61605181  1.0
  Ti  Ti1798  1  0.49441994  0.87631155  0.61605181  1.0
  Ti  Ti1799  1  0.60553105  0.01916870  0.61605181  1.0
  Ti  Ti1800  1  0.60553105  0.16202584  0.61605181  1.0
  Ti  Ti1801  1  0.60553105  0.30488298  0.61605181  1.0
  Ti  Ti1802  1  0.60553105  0.44774012  0.61605181  1.0
  Ti  Ti1803  1  0.60553105  0.59059727  0.61605181  1.0
  Ti  Ti1804  1  0.60553105  0.73345441  0.61605181  1.0
  Ti  Ti1805  1  0.60553105  0.87631155  0.61605181  1.0
  Ti  Ti1806  1  0.71664216  0.01916870  0.61605181  1.0
  Ti  Ti1807  1  0.71664216  0.16202584  0.61605181  1.0
  Ti  Ti1808  1  0.71664216  0.30488298  0.61605181  1.0
  Ti  Ti1809  1  0.71664216  0.44774012  0.61605181  1.0
  Ti  Ti1810  1  0.71664216  0.59059727  0.61605181  1.0
  Ti  Ti1811  1  0.71664216  0.73345441  0.61605181  1.0
  Ti  Ti1812  1  0.71664216  0.87631155  0.61605181  1.0
  Ti  Ti1813  1  0.82775327  0.01916870  0.61605181  1.0
  Ti  Ti1814  1  0.82775327  0.16202584  0.61605181  1.0
  Ti  Ti1815  1  0.82775327  0.30488298  0.61605181  1.0
  Ti  Ti1816  1  0.82775327  0.44774012  0.61605181  1.0
  Ti  Ti1817  1  0.82775327  0.59059727  0.61605181  1.0
  Ti  Ti1818  1  0.82775327  0.73345441  0.61605181  1.0
  Ti  Ti1819  1  0.82775327  0.87631155  0.61605181  1.0
  Ti  Ti1820  1  0.93886438  0.01916870  0.61605181  1.0
  Ti  Ti1821  1  0.93886438  0.16202584  0.61605181  1.0
  Ti  Ti1822  1  0.93886438  0.30488298  0.61605181  1.0
  Ti  Ti1823  1  0.93886438  0.44774012  0.61605181  1.0
  Ti  Ti1824  1  0.93886438  0.59059727  0.61605181  1.0
  Ti  Ti1825  1  0.93886438  0.73345441  0.61605181  1.0
  Ti  Ti1826  1  0.93886438  0.87631155  0.61605181  1.0
  Ti  Ti1827  1  0.00764745  0.13481495  0.52081371  1.0
  Ti  Ti1828  1  0.00764745  0.27767210  0.52081371  1.0
  Ti  Ti1829  1  0.00764745  0.42052924  0.52081371  1.0
  Ti  Ti1830  1  0.00764745  0.56338638  0.52081371  1.0
  Ti  Ti1831  1  0.00764745  0.70624353  0.52081371  1.0
  Ti  Ti1832  1  0.00764745  0.84910067  0.52081371  1.0
  Ti  Ti1833  1  0.00764745  0.99195781  0.52081371  1.0
  Ti  Ti1834  1  0.11875856  0.13481495  0.52081371  1.0
  Ti  Ti1835  1  0.11875856  0.27767210  0.52081371  1.0
  Ti  Ti1836  1  0.11875856  0.42052924  0.52081371  1.0
  Ti  Ti1837  1  0.11875856  0.56338638  0.52081371  1.0
  Ti  Ti1838  1  0.11875856  0.70624353  0.52081371  1.0
  Ti  Ti1839  1  0.11875856  0.84910067  0.52081371  1.0
  Ti  Ti1840  1  0.11875856  0.99195781  0.52081371  1.0
  Ti  Ti1841  1  0.22986967  0.13481495  0.52081371  1.0
  Ti  Ti1842  1  0.22986967  0.27767210  0.52081371  1.0
  Ti  Ti1843  1  0.22986967  0.42052924  0.52081371  1.0
  Ti  Ti1844  1  0.22986967  0.56338638  0.52081371  1.0
  Ti  Ti1845  1  0.22986967  0.70624353  0.52081371  1.0
  Ti  Ti1846  1  0.22986967  0.84910067  0.52081371  1.0
  Ti  Ti1847  1  0.22986967  0.99195781  0.52081371  1.0
  Ti  Ti1848  1  0.34098078  0.13481495  0.52081371  1.0
  Ti  Ti1849  1  0.34098078  0.27767210  0.52081371  1.0
  Ti  Ti1850  1  0.34098078  0.42052924  0.52081371  1.0
  Ti  Ti1851  1  0.34098078  0.56338638  0.52081371  1.0
  Ti  Ti1852  1  0.34098078  0.70624353  0.52081371  1.0
  Ti  Ti1853  1  0.34098078  0.84910067  0.52081371  1.0
  Ti  Ti1854  1  0.34098078  0.99195781  0.52081371  1.0
  Ti  Ti1855  1  0.45209189  0.13481495  0.52081371  1.0
  Ti  Ti1856  1  0.45209189  0.27767210  0.52081371  1.0
  Ti  Ti1857  1  0.45209189  0.42052924  0.52081371  1.0
  Ti  Ti1858  1  0.45209189  0.56338638  0.52081371  1.0
  Ti  Ti1859  1  0.45209189  0.70624353  0.52081371  1.0
  Ti  Ti1860  1  0.45209189  0.84910067  0.52081371  1.0
  Ti  Ti1861  1  0.45209189  0.99195781  0.52081371  1.0
  Ti  Ti1862  1  0.56320301  0.13481495  0.52081371  1.0
  Ti  Ti1863  1  0.56320301  0.27767210  0.52081371  1.0
  Ti  Ti1864  1  0.56320301  0.42052924  0.52081371  1.0
  Ti  Ti1865  1  0.56320301  0.56338638  0.52081371  1.0
  Ti  Ti1866  1  0.56320301  0.70624353  0.52081371  1.0
  Ti  Ti1867  1  0.56320301  0.84910067  0.52081371  1.0
  Ti  Ti1868  1  0.56320301  0.99195781  0.52081371  1.0
  Ti  Ti1869  1  0.67431412  0.13481495  0.52081371  1.0
  Ti  Ti1870  1  0.67431412  0.27767210  0.52081371  1.0
  Ti  Ti1871  1  0.67431412  0.42052924  0.52081371  1.0
  Ti  Ti1872  1  0.67431412  0.56338638  0.52081371  1.0
  Ti  Ti1873  1  0.67431412  0.70624353  0.52081371  1.0
  Ti  Ti1874  1  0.67431412  0.84910067  0.52081371  1.0
  Ti  Ti1875  1  0.67431412  0.99195781  0.52081371  1.0
  Ti  Ti1876  1  0.78542523  0.13481495  0.52081371  1.0
  Ti  Ti1877  1  0.78542523  0.27767210  0.52081371  1.0
  Ti  Ti1878  1  0.78542523  0.42052924  0.52081371  1.0
  Ti  Ti1879  1  0.78542523  0.56338638  0.52081371  1.0
  Ti  Ti1880  1  0.78542523  0.70624353  0.52081371  1.0
  Ti  Ti1881  1  0.78542523  0.84910067  0.52081371  1.0
  Ti  Ti1882  1  0.78542523  0.99195781  0.52081371  1.0
  Ti  Ti1883  1  0.89653634  0.13481495  0.52081371  1.0
  Ti  Ti1884  1  0.89653634  0.27767210  0.52081371  1.0
  Ti  Ti1885  1  0.89653634  0.42052924  0.52081371  1.0
  Ti  Ti1886  1  0.89653634  0.56338638  0.52081371  1.0
  Ti  Ti1887  1  0.89653634  0.70624353  0.52081371  1.0
  Ti  Ti1888  1  0.89653634  0.84910067  0.52081371  1.0
  Ti  Ti1889  1  0.89653634  0.99195781  0.52081371  1.0
  Ti  Ti1890  1  0.00445195  0.06386974  0.52250545  1.0
  Ti  Ti1891  1  0.00445195  0.20672688  0.52250545  1.0
  Ti  Ti1892  1  0.00445195  0.34958402  0.52250545  1.0
  Ti  Ti1893  1  0.00445195  0.49244116  0.52250545  1.0
  Ti  Ti1894  1  0.00445195  0.63529831  0.52250545  1.0
  Ti  Ti1895  1  0.00445195  0.77815545  0.52250545  1.0
  Ti  Ti1896  1  0.00445195  0.92101259  0.52250545  1.0
  Ti  Ti1897  1  0.11556306  0.06386974  0.52250545  1.0
  Ti  Ti1898  1  0.11556306  0.20672688  0.52250545  1.0
  Ti  Ti1899  1  0.11556306  0.34958402  0.52250545  1.0
  Ti  Ti1900  1  0.11556306  0.49244116  0.52250545  1.0
  Ti  Ti1901  1  0.11556306  0.63529831  0.52250545  1.0
  Ti  Ti1902  1  0.11556306  0.77815545  0.52250545  1.0
  Ti  Ti1903  1  0.11556306  0.92101259  0.52250545  1.0
  Ti  Ti1904  1  0.22667418  0.06386974  0.52250545  1.0
  Ti  Ti1905  1  0.22667418  0.20672688  0.52250545  1.0
  Ti  Ti1906  1  0.22667418  0.34958402  0.52250545  1.0
  Ti  Ti1907  1  0.22667418  0.49244116  0.52250545  1.0
  Ti  Ti1908  1  0.22667418  0.63529831  0.52250545  1.0
  Ti  Ti1909  1  0.22667418  0.77815545  0.52250545  1.0
  Ti  Ti1910  1  0.22667418  0.92101259  0.52250545  1.0
  Ti  Ti1911  1  0.33778529  0.06386974  0.52250545  1.0
  Ti  Ti1912  1  0.33778529  0.20672688  0.52250545  1.0
  Ti  Ti1913  1  0.33778529  0.34958402  0.52250545  1.0
  Ti  Ti1914  1  0.33778529  0.49244116  0.52250545  1.0
  Ti  Ti1915  1  0.33778529  0.63529831  0.52250545  1.0
  Ti  Ti1916  1  0.33778529  0.77815545  0.52250545  1.0
  Ti  Ti1917  1  0.33778529  0.92101259  0.52250545  1.0
  Ti  Ti1918  1  0.44889640  0.06386974  0.52250545  1.0
  Ti  Ti1919  1  0.44889640  0.20672688  0.52250545  1.0
  Ti  Ti1920  1  0.44889640  0.34958402  0.52250545  1.0
  Ti  Ti1921  1  0.44889640  0.49244116  0.52250545  1.0
  Ti  Ti1922  1  0.44889640  0.63529831  0.52250545  1.0
  Ti  Ti1923  1  0.44889640  0.77815545  0.52250545  1.0
  Ti  Ti1924  1  0.44889640  0.92101259  0.52250545  1.0
  Ti  Ti1925  1  0.56000751  0.06386974  0.52250545  1.0
  Ti  Ti1926  1  0.56000751  0.20672688  0.52250545  1.0
  Ti  Ti1927  1  0.56000751  0.34958402  0.52250545  1.0
  Ti  Ti1928  1  0.56000751  0.49244116  0.52250545  1.0
  Ti  Ti1929  1  0.56000751  0.63529831  0.52250545  1.0
  Ti  Ti1930  1  0.56000751  0.77815545  0.52250545  1.0
  Ti  Ti1931  1  0.56000751  0.92101259  0.52250545  1.0
  Ti  Ti1932  1  0.67111862  0.06386974  0.52250545  1.0
  Ti  Ti1933  1  0.67111862  0.20672688  0.52250545  1.0
  Ti  Ti1934  1  0.67111862  0.34958402  0.52250545  1.0
  Ti  Ti1935  1  0.67111862  0.49244116  0.52250545  1.0
  Ti  Ti1936  1  0.67111862  0.63529831  0.52250545  1.0
  Ti  Ti1937  1  0.67111862  0.77815545  0.52250545  1.0
  Ti  Ti1938  1  0.67111862  0.92101259  0.52250545  1.0
  Ti  Ti1939  1  0.78222973  0.06386974  0.52250545  1.0
  Ti  Ti1940  1  0.78222973  0.20672688  0.52250545  1.0
  Ti  Ti1941  1  0.78222973  0.34958402  0.52250545  1.0
  Ti  Ti1942  1  0.78222973  0.49244116  0.52250545  1.0
  Ti  Ti1943  1  0.78222973  0.63529831  0.52250545  1.0
  Ti  Ti1944  1  0.78222973  0.77815545  0.52250545  1.0
  Ti  Ti1945  1  0.78222973  0.92101259  0.52250545  1.0
  Ti  Ti1946  1  0.89334084  0.06386974  0.52250545  1.0
  Ti  Ti1947  1  0.89334084  0.20672688  0.52250545  1.0
  Ti  Ti1948  1  0.89334084  0.34958402  0.52250545  1.0
  Ti  Ti1949  1  0.89334084  0.49244116  0.52250545  1.0
  Ti  Ti1950  1  0.89334084  0.63529831  0.52250545  1.0
  Ti  Ti1951  1  0.89334084  0.77815545  0.52250545  1.0
  Ti  Ti1952  1  0.89334084  0.92101259  0.52250545  1.0
  Ti  Ti1953  1  0.02561597  0.07747518  0.57012449  1.0
  Ti  Ti1954  1  0.02561597  0.22033232  0.57012449  1.0
  Ti  Ti1955  1  0.02561597  0.36318946  0.57012449  1.0
  Ti  Ti1956  1  0.02561597  0.50604661  0.57012449  1.0
  Ti  Ti1957  1  0.02561597  0.64890375  0.57012449  1.0
  Ti  Ti1958  1  0.02561597  0.79176089  0.57012449  1.0
  Ti  Ti1959  1  0.02561597  0.93461804  0.57012449  1.0
  Ti  Ti1960  1  0.13672709  0.07747518  0.57012449  1.0
  Ti  Ti1961  1  0.13672709  0.22033232  0.57012449  1.0
  Ti  Ti1962  1  0.13672709  0.36318946  0.57012449  1.0
  Ti  Ti1963  1  0.13672709  0.50604661  0.57012449  1.0
  Ti  Ti1964  1  0.13672709  0.64890375  0.57012449  1.0
  Ti  Ti1965  1  0.13672709  0.79176089  0.57012449  1.0
  Ti  Ti1966  1  0.13672709  0.93461804  0.57012449  1.0
  Ti  Ti1967  1  0.24783820  0.07747518  0.57012449  1.0
  Ti  Ti1968  1  0.24783820  0.22033232  0.57012449  1.0
  Ti  Ti1969  1  0.24783820  0.36318946  0.57012449  1.0
  Ti  Ti1970  1  0.24783820  0.50604661  0.57012449  1.0
  Ti  Ti1971  1  0.24783820  0.64890375  0.57012449  1.0
  Ti  Ti1972  1  0.24783820  0.79176089  0.57012449  1.0
  Ti  Ti1973  1  0.24783820  0.93461804  0.57012449  1.0
  Ti  Ti1974  1  0.35894931  0.07747518  0.57012449  1.0
  Ti  Ti1975  1  0.35894931  0.22033232  0.57012449  1.0
  Ti  Ti1976  1  0.35894931  0.36318946  0.57012449  1.0
  Ti  Ti1977  1  0.35894931  0.50604661  0.57012449  1.0
  Ti  Ti1978  1  0.35894931  0.64890375  0.57012449  1.0
  Ti  Ti1979  1  0.35894931  0.79176089  0.57012449  1.0
  Ti  Ti1980  1  0.35894931  0.93461804  0.57012449  1.0
  Ti  Ti1981  1  0.47006042  0.07747518  0.57012449  1.0
  Ti  Ti1982  1  0.47006042  0.22033232  0.57012449  1.0
  Ti  Ti1983  1  0.47006042  0.36318946  0.57012449  1.0
  Ti  Ti1984  1  0.47006042  0.50604661  0.57012449  1.0
  Ti  Ti1985  1  0.47006042  0.64890375  0.57012449  1.0
  Ti  Ti1986  1  0.47006042  0.79176089  0.57012449  1.0
  Ti  Ti1987  1  0.47006042  0.93461804  0.57012449  1.0
  Ti  Ti1988  1  0.58117153  0.07747518  0.57012449  1.0
  Ti  Ti1989  1  0.58117153  0.22033232  0.57012449  1.0
  Ti  Ti1990  1  0.58117153  0.36318946  0.57012449  1.0
  Ti  Ti1991  1  0.58117153  0.50604661  0.57012449  1.0
  Ti  Ti1992  1  0.58117153  0.64890375  0.57012449  1.0
  Ti  Ti1993  1  0.58117153  0.79176089  0.57012449  1.0
  Ti  Ti1994  1  0.58117153  0.93461804  0.57012449  1.0
  Ti  Ti1995  1  0.69228264  0.07747518  0.57012449  1.0
  Ti  Ti1996  1  0.69228264  0.22033232  0.57012449  1.0
  Ti  Ti1997  1  0.69228264  0.36318946  0.57012449  1.0
  Ti  Ti1998  1  0.69228264  0.50604661  0.57012449  1.0
  Ti  Ti1999  1  0.69228264  0.64890375  0.57012449  1.0
  Ti  Ti2000  1  0.69228264  0.79176089  0.57012449  1.0
  Ti  Ti2001  1  0.69228264  0.93461804  0.57012449  1.0
  Ti  Ti2002  1  0.80339375  0.07747518  0.57012449  1.0
  Ti  Ti2003  1  0.80339375  0.22033232  0.57012449  1.0
  Ti  Ti2004  1  0.80339375  0.36318946  0.57012449  1.0
  Ti  Ti2005  1  0.80339375  0.50604661  0.57012449  1.0
  Ti  Ti2006  1  0.80339375  0.64890375  0.57012449  1.0
  Ti  Ti2007  1  0.80339375  0.79176089  0.57012449  1.0
  Ti  Ti2008  1  0.80339375  0.93461804  0.57012449  1.0
  Ti  Ti2009  1  0.91450486  0.07747518  0.57012449  1.0
  Ti  Ti2010  1  0.91450486  0.22033232  0.57012449  1.0
  Ti  Ti2011  1  0.91450486  0.36318946  0.57012449  1.0
  Ti  Ti2012  1  0.91450486  0.50604661  0.57012449  1.0
  Ti  Ti2013  1  0.91450486  0.64890375  0.57012449  1.0
  Ti  Ti2014  1  0.91450486  0.79176089  0.57012449  1.0
  Ti  Ti2015  1  0.91450486  0.93461804  0.57012449  1.0
  Ti  Ti2016  1  0.04678000  0.09108062  0.61774354  1.0
  Ti  Ti2017  1  0.04678000  0.23393776  0.61774354  1.0
  Ti  Ti2018  1  0.04678000  0.37679491  0.61774354  1.0
  Ti  Ti2019  1  0.04678000  0.51965205  0.61774354  1.0
  Ti  Ti2020  1  0.04678000  0.66250919  0.61774354  1.0
  Ti  Ti2021  1  0.04678000  0.80536633  0.61774354  1.0
  Ti  Ti2022  1  0.04678000  0.94822348  0.61774354  1.0
  Ti  Ti2023  1  0.15789111  0.09108062  0.61774354  1.0
  Ti  Ti2024  1  0.15789111  0.23393776  0.61774354  1.0
  Ti  Ti2025  1  0.15789111  0.37679491  0.61774354  1.0
  Ti  Ti2026  1  0.15789111  0.51965205  0.61774354  1.0
  Ti  Ti2027  1  0.15789111  0.66250919  0.61774354  1.0
  Ti  Ti2028  1  0.15789111  0.80536633  0.61774354  1.0
  Ti  Ti2029  1  0.15789111  0.94822348  0.61774354  1.0
  Ti  Ti2030  1  0.26900222  0.09108062  0.61774354  1.0
  Ti  Ti2031  1  0.26900222  0.23393776  0.61774354  1.0
  Ti  Ti2032  1  0.26900222  0.37679491  0.61774354  1.0
  Ti  Ti2033  1  0.26900222  0.51965205  0.61774354  1.0
  Ti  Ti2034  1  0.26900222  0.66250919  0.61774354  1.0
  Ti  Ti2035  1  0.26900222  0.80536633  0.61774354  1.0
  Ti  Ti2036  1  0.26900222  0.94822348  0.61774354  1.0
  Ti  Ti2037  1  0.38011333  0.09108062  0.61774354  1.0
  Ti  Ti2038  1  0.38011333  0.23393776  0.61774354  1.0
  Ti  Ti2039  1  0.38011333  0.37679491  0.61774354  1.0
  Ti  Ti2040  1  0.38011333  0.51965205  0.61774354  1.0
  Ti  Ti2041  1  0.38011333  0.66250919  0.61774354  1.0
  Ti  Ti2042  1  0.38011333  0.80536633  0.61774354  1.0
  Ti  Ti2043  1  0.38011333  0.94822348  0.61774354  1.0
  Ti  Ti2044  1  0.49122444  0.09108062  0.61774354  1.0
  Ti  Ti2045  1  0.49122444  0.23393776  0.61774354  1.0
  Ti  Ti2046  1  0.49122444  0.37679491  0.61774354  1.0
  Ti  Ti2047  1  0.49122444  0.51965205  0.61774354  1.0
  Ti  Ti2048  1  0.49122444  0.66250919  0.61774354  1.0
  Ti  Ti2049  1  0.49122444  0.80536633  0.61774354  1.0
  Ti  Ti2050  1  0.49122444  0.94822348  0.61774354  1.0
  Ti  Ti2051  1  0.60233555  0.09108062  0.61774354  1.0
  Ti  Ti2052  1  0.60233555  0.23393776  0.61774354  1.0
  Ti  Ti2053  1  0.60233555  0.37679491  0.61774354  1.0
  Ti  Ti2054  1  0.60233555  0.51965205  0.61774354  1.0
  Ti  Ti2055  1  0.60233555  0.66250919  0.61774354  1.0
  Ti  Ti2056  1  0.60233555  0.80536633  0.61774354  1.0
  Ti  Ti2057  1  0.60233555  0.94822348  0.61774354  1.0
  Ti  Ti2058  1  0.71344666  0.09108062  0.61774354  1.0
  Ti  Ti2059  1  0.71344666  0.23393776  0.61774354  1.0
  Ti  Ti2060  1  0.71344666  0.37679491  0.61774354  1.0
  Ti  Ti2061  1  0.71344666  0.51965205  0.61774354  1.0
  Ti  Ti2062  1  0.71344666  0.66250919  0.61774354  1.0
  Ti  Ti2063  1  0.71344666  0.80536633  0.61774354  1.0
  Ti  Ti2064  1  0.71344666  0.94822348  0.61774354  1.0
  Ti  Ti2065  1  0.82455777  0.09108062  0.61774354  1.0
  Ti  Ti2066  1  0.82455777  0.23393776  0.61774354  1.0
  Ti  Ti2067  1  0.82455777  0.37679491  0.61774354  1.0
  Ti  Ti2068  1  0.82455777  0.51965205  0.61774354  1.0
  Ti  Ti2069  1  0.82455777  0.66250919  0.61774354  1.0
  Ti  Ti2070  1  0.82455777  0.80536633  0.61774354  1.0
  Ti  Ti2071  1  0.82455777  0.94822348  0.61774354  1.0
  Ti  Ti2072  1  0.93566889  0.09108062  0.61774354  1.0
  Ti  Ti2073  1  0.93566889  0.23393776  0.61774354  1.0
  Ti  Ti2074  1  0.93566889  0.37679491  0.61774354  1.0
  Ti  Ti2075  1  0.93566889  0.51965205  0.61774354  1.0
  Ti  Ti2076  1  0.93566889  0.66250919  0.61774354  1.0
  Ti  Ti2077  1  0.93566889  0.80536633  0.61774354  1.0
  Ti  Ti2078  1  0.93566889  0.94822348  0.61774354  1.0
  Ti  Ti2079  1  0.09848797  0.13361033  0.60020489  1.0
  Ti  Ti2080  1  0.09848797  0.27646747  0.60020489  1.0
  Ti  Ti2081  1  0.09848797  0.41932461  0.60020489  1.0
  Ti  Ti2082  1  0.09848797  0.56218175  0.60020489  1.0
  Ti  Ti2083  1  0.09848797  0.70503890  0.60020489  1.0
  Ti  Ti2084  1  0.09848797  0.84789604  0.60020489  1.0
  Ti  Ti2085  1  0.09848797  0.99075318  0.60020489  1.0
  Ti  Ti2086  1  0.20959909  0.13361033  0.60020489  1.0
  Ti  Ti2087  1  0.20959909  0.27646747  0.60020489  1.0
  Ti  Ti2088  1  0.20959909  0.41932461  0.60020489  1.0
  Ti  Ti2089  1  0.20959909  0.56218175  0.60020489  1.0
  Ti  Ti2090  1  0.20959909  0.70503890  0.60020489  1.0
  Ti  Ti2091  1  0.20959909  0.84789604  0.60020489  1.0
  Ti  Ti2092  1  0.20959909  0.99075318  0.60020489  1.0
  Ti  Ti2093  1  0.32071020  0.13361033  0.60020489  1.0
  Ti  Ti2094  1  0.32071020  0.27646747  0.60020489  1.0
  Ti  Ti2095  1  0.32071020  0.41932461  0.60020489  1.0
  Ti  Ti2096  1  0.32071020  0.56218175  0.60020489  1.0
  Ti  Ti2097  1  0.32071020  0.70503890  0.60020489  1.0
  Ti  Ti2098  1  0.32071020  0.84789604  0.60020489  1.0
  Ti  Ti2099  1  0.32071020  0.99075318  0.60020489  1.0
  Ti  Ti2100  1  0.43182131  0.13361033  0.60020489  1.0
  Ti  Ti2101  1  0.43182131  0.27646747  0.60020489  1.0
  Ti  Ti2102  1  0.43182131  0.41932461  0.60020489  1.0
  Ti  Ti2103  1  0.43182131  0.56218175  0.60020489  1.0
  Ti  Ti2104  1  0.43182131  0.70503890  0.60020489  1.0
  Ti  Ti2105  1  0.43182131  0.84789604  0.60020489  1.0
  Ti  Ti2106  1  0.43182131  0.99075318  0.60020489  1.0
  Ti  Ti2107  1  0.54293242  0.13361033  0.60020489  1.0
  Ti  Ti2108  1  0.54293242  0.27646747  0.60020489  1.0
  Ti  Ti2109  1  0.54293242  0.41932461  0.60020489  1.0
  Ti  Ti2110  1  0.54293242  0.56218175  0.60020489  1.0
  Ti  Ti2111  1  0.54293242  0.70503890  0.60020489  1.0
  Ti  Ti2112  1  0.54293242  0.84789604  0.60020489  1.0
  Ti  Ti2113  1  0.54293242  0.99075318  0.60020489  1.0
  Ti  Ti2114  1  0.65404353  0.13361033  0.60020489  1.0
  Ti  Ti2115  1  0.65404353  0.27646747  0.60020489  1.0
  Ti  Ti2116  1  0.65404353  0.41932461  0.60020489  1.0
  Ti  Ti2117  1  0.65404353  0.56218175  0.60020489  1.0
  Ti  Ti2118  1  0.65404353  0.70503890  0.60020489  1.0
  Ti  Ti2119  1  0.65404353  0.84789604  0.60020489  1.0
  Ti  Ti2120  1  0.65404353  0.99075318  0.60020489  1.0
  Ti  Ti2121  1  0.76515464  0.13361033  0.60020489  1.0
  Ti  Ti2122  1  0.76515464  0.27646747  0.60020489  1.0
  Ti  Ti2123  1  0.76515464  0.41932461  0.60020489  1.0
  Ti  Ti2124  1  0.76515464  0.56218175  0.60020489  1.0
  Ti  Ti2125  1  0.76515464  0.70503890  0.60020489  1.0
  Ti  Ti2126  1  0.76515464  0.84789604  0.60020489  1.0
  Ti  Ti2127  1  0.76515464  0.99075318  0.60020489  1.0
  Ti  Ti2128  1  0.87626575  0.13361033  0.60020489  1.0
  Ti  Ti2129  1  0.87626575  0.27646747  0.60020489  1.0
  Ti  Ti2130  1  0.87626575  0.41932461  0.60020489  1.0
  Ti  Ti2131  1  0.87626575  0.56218175  0.60020489  1.0
  Ti  Ti2132  1  0.87626575  0.70503890  0.60020489  1.0
  Ti  Ti2133  1  0.87626575  0.84789604  0.60020489  1.0
  Ti  Ti2134  1  0.87626575  0.99075318  0.60020489  1.0
  Ti  Ti2135  1  0.98737686  0.13361033  0.60020489  1.0
  Ti  Ti2136  1  0.98737686  0.27646747  0.60020489  1.0
  Ti  Ti2137  1  0.98737686  0.41932461  0.60020489  1.0
  Ti  Ti2138  1  0.98737686  0.56218175  0.60020489  1.0
  Ti  Ti2139  1  0.98737686  0.70503890  0.60020489  1.0
  Ti  Ti2140  1  0.98737686  0.84789604  0.60020489  1.0
  Ti  Ti2141  1  0.98737686  0.99075318  0.60020489  1.0
  Ti  Ti2142  1  0.05615993  0.10639944  0.50496680  1.0
  Ti  Ti2143  1  0.05615993  0.24925658  0.50496680  1.0
  Ti  Ti2144  1  0.05615993  0.39211373  0.50496680  1.0
  Ti  Ti2145  1  0.05615993  0.53497087  0.50496680  1.0
  Ti  Ti2146  1  0.05615993  0.67782801  0.50496680  1.0
  Ti  Ti2147  1  0.05615993  0.82068516  0.50496680  1.0
  Ti  Ti2148  1  0.05615993  0.96354230  0.50496680  1.0
  Ti  Ti2149  1  0.16727104  0.10639944  0.50496680  1.0
  Ti  Ti2150  1  0.16727104  0.24925658  0.50496680  1.0
  Ti  Ti2151  1  0.16727104  0.39211373  0.50496680  1.0
  Ti  Ti2152  1  0.16727104  0.53497087  0.50496680  1.0
  Ti  Ti2153  1  0.16727104  0.67782801  0.50496680  1.0
  Ti  Ti2154  1  0.16727104  0.82068516  0.50496680  1.0
  Ti  Ti2155  1  0.16727104  0.96354230  0.50496680  1.0
  Ti  Ti2156  1  0.27838215  0.10639944  0.50496680  1.0
  Ti  Ti2157  1  0.27838215  0.24925658  0.50496680  1.0
  Ti  Ti2158  1  0.27838215  0.39211373  0.50496680  1.0
  Ti  Ti2159  1  0.27838215  0.53497087  0.50496680  1.0
  Ti  Ti2160  1  0.27838215  0.67782801  0.50496680  1.0
  Ti  Ti2161  1  0.27838215  0.82068516  0.50496680  1.0
  Ti  Ti2162  1  0.27838215  0.96354230  0.50496680  1.0
  Ti  Ti2163  1  0.38949327  0.10639944  0.50496680  1.0
  Ti  Ti2164  1  0.38949327  0.24925658  0.50496680  1.0
  Ti  Ti2165  1  0.38949327  0.39211373  0.50496680  1.0
  Ti  Ti2166  1  0.38949327  0.53497087  0.50496680  1.0
  Ti  Ti2167  1  0.38949327  0.67782801  0.50496680  1.0
  Ti  Ti2168  1  0.38949327  0.82068516  0.50496680  1.0
  Ti  Ti2169  1  0.38949327  0.96354230  0.50496680  1.0
  Ti  Ti2170  1  0.50060438  0.10639944  0.50496680  1.0
  Ti  Ti2171  1  0.50060438  0.24925658  0.50496680  1.0
  Ti  Ti2172  1  0.50060438  0.39211373  0.50496680  1.0
  Ti  Ti2173  1  0.50060438  0.53497087  0.50496680  1.0
  Ti  Ti2174  1  0.50060438  0.67782801  0.50496680  1.0
  Ti  Ti2175  1  0.50060438  0.82068516  0.50496680  1.0
  Ti  Ti2176  1  0.50060438  0.96354230  0.50496680  1.0
  Ti  Ti2177  1  0.61171549  0.10639944  0.50496680  1.0
  Ti  Ti2178  1  0.61171549  0.24925658  0.50496680  1.0
  Ti  Ti2179  1  0.61171549  0.39211373  0.50496680  1.0
  Ti  Ti2180  1  0.61171549  0.53497087  0.50496680  1.0
  Ti  Ti2181  1  0.61171549  0.67782801  0.50496680  1.0
  Ti  Ti2182  1  0.61171549  0.82068516  0.50496680  1.0
  Ti  Ti2183  1  0.61171549  0.96354230  0.50496680  1.0
  Ti  Ti2184  1  0.72282660  0.10639944  0.50496680  1.0
  Ti  Ti2185  1  0.72282660  0.24925658  0.50496680  1.0
  Ti  Ti2186  1  0.72282660  0.39211373  0.50496680  1.0
  Ti  Ti2187  1  0.72282660  0.53497087  0.50496680  1.0
  Ti  Ti2188  1  0.72282660  0.67782801  0.50496680  1.0
  Ti  Ti2189  1  0.72282660  0.82068516  0.50496680  1.0
  Ti  Ti2190  1  0.72282660  0.96354230  0.50496680  1.0
  Ti  Ti2191  1  0.83393771  0.10639944  0.50496680  1.0
  Ti  Ti2192  1  0.83393771  0.24925658  0.50496680  1.0
  Ti  Ti2193  1  0.83393771  0.39211373  0.50496680  1.0
  Ti  Ti2194  1  0.83393771  0.53497087  0.50496680  1.0
  Ti  Ti2195  1  0.83393771  0.67782801  0.50496680  1.0
  Ti  Ti2196  1  0.83393771  0.82068516  0.50496680  1.0
  Ti  Ti2197  1  0.83393771  0.96354230  0.50496680  1.0
  Ti  Ti2198  1  0.94504882  0.10639944  0.50496680  1.0
  Ti  Ti2199  1  0.94504882  0.24925658  0.50496680  1.0
  Ti  Ti2200  1  0.94504882  0.39211373  0.50496680  1.0
  Ti  Ti2201  1  0.94504882  0.53497087  0.50496680  1.0
  Ti  Ti2202  1  0.94504882  0.67782801  0.50496680  1.0
  Ti  Ti2203  1  0.94504882  0.82068516  0.50496680  1.0
  Ti  Ti2204  1  0.94504882  0.96354230  0.50496680  1.0
  Ti  Ti2205  1  0.07732395  0.12000488  0.55258585  1.0
  Ti  Ti2206  1  0.07732395  0.26286203  0.55258585  1.0
  Ti  Ti2207  1  0.07732395  0.40571917  0.55258585  1.0
  Ti  Ti2208  1  0.07732395  0.54857631  0.55258585  1.0
  Ti  Ti2209  1  0.07732395  0.69143346  0.55258585  1.0
  Ti  Ti2210  1  0.07732395  0.83429060  0.55258585  1.0
  Ti  Ti2211  1  0.07732395  0.97714774  0.55258585  1.0
  Ti  Ti2212  1  0.18843506  0.12000488  0.55258585  1.0
  Ti  Ti2213  1  0.18843506  0.26286203  0.55258585  1.0
  Ti  Ti2214  1  0.18843506  0.40571917  0.55258585  1.0
  Ti  Ti2215  1  0.18843506  0.54857631  0.55258585  1.0
  Ti  Ti2216  1  0.18843506  0.69143346  0.55258585  1.0
  Ti  Ti2217  1  0.18843506  0.83429060  0.55258585  1.0
  Ti  Ti2218  1  0.18843506  0.97714774  0.55258585  1.0
  Ti  Ti2219  1  0.29954618  0.12000488  0.55258585  1.0
  Ti  Ti2220  1  0.29954618  0.26286203  0.55258585  1.0
  Ti  Ti2221  1  0.29954618  0.40571917  0.55258585  1.0
  Ti  Ti2222  1  0.29954618  0.54857631  0.55258585  1.0
  Ti  Ti2223  1  0.29954618  0.69143346  0.55258585  1.0
  Ti  Ti2224  1  0.29954618  0.83429060  0.55258585  1.0
  Ti  Ti2225  1  0.29954618  0.97714774  0.55258585  1.0
  Ti  Ti2226  1  0.41065729  0.12000488  0.55258585  1.0
  Ti  Ti2227  1  0.41065729  0.26286203  0.55258585  1.0
  Ti  Ti2228  1  0.41065729  0.40571917  0.55258585  1.0
  Ti  Ti2229  1  0.41065729  0.54857631  0.55258585  1.0
  Ti  Ti2230  1  0.41065729  0.69143346  0.55258585  1.0
  Ti  Ti2231  1  0.41065729  0.83429060  0.55258585  1.0
  Ti  Ti2232  1  0.41065729  0.97714774  0.55258585  1.0
  Ti  Ti2233  1  0.52176840  0.12000488  0.55258585  1.0
  Ti  Ti2234  1  0.52176840  0.26286203  0.55258585  1.0
  Ti  Ti2235  1  0.52176840  0.40571917  0.55258585  1.0
  Ti  Ti2236  1  0.52176840  0.54857631  0.55258585  1.0
  Ti  Ti2237  1  0.52176840  0.69143346  0.55258585  1.0
  Ti  Ti2238  1  0.52176840  0.83429060  0.55258585  1.0
  Ti  Ti2239  1  0.52176840  0.97714774  0.55258585  1.0
  Ti  Ti2240  1  0.63287951  0.12000488  0.55258585  1.0
  Ti  Ti2241  1  0.63287951  0.26286203  0.55258585  1.0
  Ti  Ti2242  1  0.63287951  0.40571917  0.55258585  1.0
  Ti  Ti2243  1  0.63287951  0.54857631  0.55258585  1.0
  Ti  Ti2244  1  0.63287951  0.69143346  0.55258585  1.0
  Ti  Ti2245  1  0.63287951  0.83429060  0.55258585  1.0
  Ti  Ti2246  1  0.63287951  0.97714774  0.55258585  1.0
  Ti  Ti2247  1  0.74399062  0.12000488  0.55258585  1.0
  Ti  Ti2248  1  0.74399062  0.26286203  0.55258585  1.0
  Ti  Ti2249  1  0.74399062  0.40571917  0.55258585  1.0
  Ti  Ti2250  1  0.74399062  0.54857631  0.55258585  1.0
  Ti  Ti2251  1  0.74399062  0.69143346  0.55258585  1.0
  Ti  Ti2252  1  0.74399062  0.83429060  0.55258585  1.0
  Ti  Ti2253  1  0.74399062  0.97714774  0.55258585  1.0
  Ti  Ti2254  1  0.85510173  0.12000488  0.55258585  1.0
  Ti  Ti2255  1  0.85510173  0.26286203  0.55258585  1.0
  Ti  Ti2256  1  0.85510173  0.40571917  0.55258585  1.0
  Ti  Ti2257  1  0.85510173  0.54857631  0.55258585  1.0
  Ti  Ti2258  1  0.85510173  0.69143346  0.55258585  1.0
  Ti  Ti2259  1  0.85510173  0.83429060  0.55258585  1.0
  Ti  Ti2260  1  0.85510173  0.97714774  0.55258585  1.0
  Ti  Ti2261  1  0.96621284  0.12000488  0.55258585  1.0
  Ti  Ti2262  1  0.96621284  0.26286203  0.55258585  1.0
  Ti  Ti2263  1  0.96621284  0.40571917  0.55258585  1.0
  Ti  Ti2264  1  0.96621284  0.54857631  0.55258585  1.0
  Ti  Ti2265  1  0.96621284  0.69143346  0.55258585  1.0
  Ti  Ti2266  1  0.96621284  0.83429060  0.55258585  1.0
  Ti  Ti2267  1  0.96621284  0.97714774  0.55258585  1.0
  Ti  Ti2268  1  0.02650941  0.08987599  0.69713472  1.0
  Ti  Ti2269  1  0.02650941  0.23273313  0.69713472  1.0
  Ti  Ti2270  1  0.02650941  0.37559028  0.69713472  1.0
  Ti  Ti2271  1  0.02650941  0.51844742  0.69713472  1.0
  Ti  Ti2272  1  0.02650941  0.66130456  0.69713472  1.0
  Ti  Ti2273  1  0.02650941  0.80416171  0.69713472  1.0
  Ti  Ti2274  1  0.02650941  0.94701885  0.69713472  1.0
  Ti  Ti2275  1  0.13762052  0.08987599  0.69713472  1.0
  Ti  Ti2276  1  0.13762052  0.23273313  0.69713472  1.0
  Ti  Ti2277  1  0.13762052  0.37559028  0.69713472  1.0
  Ti  Ti2278  1  0.13762052  0.51844742  0.69713472  1.0
  Ti  Ti2279  1  0.13762052  0.66130456  0.69713472  1.0
  Ti  Ti2280  1  0.13762052  0.80416171  0.69713472  1.0
  Ti  Ti2281  1  0.13762052  0.94701885  0.69713472  1.0
  Ti  Ti2282  1  0.24873163  0.08987599  0.69713472  1.0
  Ti  Ti2283  1  0.24873163  0.23273313  0.69713472  1.0
  Ti  Ti2284  1  0.24873163  0.37559028  0.69713472  1.0
  Ti  Ti2285  1  0.24873163  0.51844742  0.69713472  1.0
  Ti  Ti2286  1  0.24873163  0.66130456  0.69713472  1.0
  Ti  Ti2287  1  0.24873163  0.80416171  0.69713472  1.0
  Ti  Ti2288  1  0.24873163  0.94701885  0.69713472  1.0
  Ti  Ti2289  1  0.35984274  0.08987599  0.69713472  1.0
  Ti  Ti2290  1  0.35984274  0.23273313  0.69713472  1.0
  Ti  Ti2291  1  0.35984274  0.37559028  0.69713472  1.0
  Ti  Ti2292  1  0.35984274  0.51844742  0.69713472  1.0
  Ti  Ti2293  1  0.35984274  0.66130456  0.69713472  1.0
  Ti  Ti2294  1  0.35984274  0.80416171  0.69713472  1.0
  Ti  Ti2295  1  0.35984274  0.94701885  0.69713472  1.0
  Ti  Ti2296  1  0.47095385  0.08987599  0.69713472  1.0
  Ti  Ti2297  1  0.47095385  0.23273313  0.69713472  1.0
  Ti  Ti2298  1  0.47095385  0.37559028  0.69713472  1.0
  Ti  Ti2299  1  0.47095385  0.51844742  0.69713472  1.0
  Ti  Ti2300  1  0.47095385  0.66130456  0.69713472  1.0
  Ti  Ti2301  1  0.47095385  0.80416171  0.69713472  1.0
  Ti  Ti2302  1  0.47095385  0.94701885  0.69713472  1.0
  Ti  Ti2303  1  0.58206496  0.08987599  0.69713472  1.0
  Ti  Ti2304  1  0.58206496  0.23273313  0.69713472  1.0
  Ti  Ti2305  1  0.58206496  0.37559028  0.69713472  1.0
  Ti  Ti2306  1  0.58206496  0.51844742  0.69713472  1.0
  Ti  Ti2307  1  0.58206496  0.66130456  0.69713472  1.0
  Ti  Ti2308  1  0.58206496  0.80416171  0.69713472  1.0
  Ti  Ti2309  1  0.58206496  0.94701885  0.69713472  1.0
  Ti  Ti2310  1  0.69317608  0.08987599  0.69713472  1.0
  Ti  Ti2311  1  0.69317608  0.23273313  0.69713472  1.0
  Ti  Ti2312  1  0.69317608  0.37559028  0.69713472  1.0
  Ti  Ti2313  1  0.69317608  0.51844742  0.69713472  1.0
  Ti  Ti2314  1  0.69317608  0.66130456  0.69713472  1.0
  Ti  Ti2315  1  0.69317608  0.80416171  0.69713472  1.0
  Ti  Ti2316  1  0.69317608  0.94701885  0.69713472  1.0
  Ti  Ti2317  1  0.80428719  0.08987599  0.69713472  1.0
  Ti  Ti2318  1  0.80428719  0.23273313  0.69713472  1.0
  Ti  Ti2319  1  0.80428719  0.37559028  0.69713472  1.0
  Ti  Ti2320  1  0.80428719  0.51844742  0.69713472  1.0
  Ti  Ti2321  1  0.80428719  0.66130456  0.69713472  1.0
  Ti  Ti2322  1  0.80428719  0.80416171  0.69713472  1.0
  Ti  Ti2323  1  0.80428719  0.94701885  0.69713472  1.0
  Ti  Ti2324  1  0.91539830  0.08987599  0.69713472  1.0
  Ti  Ti2325  1  0.91539830  0.23273313  0.69713472  1.0
  Ti  Ti2326  1  0.91539830  0.37559028  0.69713472  1.0
  Ti  Ti2327  1  0.91539830  0.51844742  0.69713472  1.0
  Ti  Ti2328  1  0.91539830  0.66130456  0.69713472  1.0
  Ti  Ti2329  1  0.91539830  0.80416171  0.69713472  1.0
  Ti  Ti2330  1  0.91539830  0.94701885  0.69713472  1.0
  Ti  Ti2331  1  0.04767343  0.10348143  0.74475377  1.0
  Ti  Ti2332  1  0.04767343  0.24633858  0.74475377  1.0
  Ti  Ti2333  1  0.04767343  0.38919572  0.74475377  1.0
  Ti  Ti2334  1  0.04767343  0.53205286  0.74475377  1.0
  Ti  Ti2335  1  0.04767343  0.67491000  0.74475377  1.0
  Ti  Ti2336  1  0.04767343  0.81776715  0.74475377  1.0
  Ti  Ti2337  1  0.04767343  0.96062429  0.74475377  1.0
  Ti  Ti2338  1  0.15878454  0.10348143  0.74475377  1.0
  Ti  Ti2339  1  0.15878454  0.24633858  0.74475377  1.0
  Ti  Ti2340  1  0.15878454  0.38919572  0.74475377  1.0
  Ti  Ti2341  1  0.15878454  0.53205286  0.74475377  1.0
  Ti  Ti2342  1  0.15878454  0.67491000  0.74475377  1.0
  Ti  Ti2343  1  0.15878454  0.81776715  0.74475377  1.0
  Ti  Ti2344  1  0.15878454  0.96062429  0.74475377  1.0
  Ti  Ti2345  1  0.26989565  0.10348143  0.74475377  1.0
  Ti  Ti2346  1  0.26989565  0.24633858  0.74475377  1.0
  Ti  Ti2347  1  0.26989565  0.38919572  0.74475377  1.0
  Ti  Ti2348  1  0.26989565  0.53205286  0.74475377  1.0
  Ti  Ti2349  1  0.26989565  0.67491000  0.74475377  1.0
  Ti  Ti2350  1  0.26989565  0.81776715  0.74475377  1.0
  Ti  Ti2351  1  0.26989565  0.96062429  0.74475377  1.0
  Ti  Ti2352  1  0.38100676  0.10348143  0.74475377  1.0
  Ti  Ti2353  1  0.38100676  0.24633858  0.74475377  1.0
  Ti  Ti2354  1  0.38100676  0.38919572  0.74475377  1.0
  Ti  Ti2355  1  0.38100676  0.53205286  0.74475377  1.0
  Ti  Ti2356  1  0.38100676  0.67491000  0.74475377  1.0
  Ti  Ti2357  1  0.38100676  0.81776715  0.74475377  1.0
  Ti  Ti2358  1  0.38100676  0.96062429  0.74475377  1.0
  Ti  Ti2359  1  0.49211787  0.10348143  0.74475377  1.0
  Ti  Ti2360  1  0.49211787  0.24633858  0.74475377  1.0
  Ti  Ti2361  1  0.49211787  0.38919572  0.74475377  1.0
  Ti  Ti2362  1  0.49211787  0.53205286  0.74475377  1.0
  Ti  Ti2363  1  0.49211787  0.67491000  0.74475377  1.0
  Ti  Ti2364  1  0.49211787  0.81776715  0.74475377  1.0
  Ti  Ti2365  1  0.49211787  0.96062429  0.74475377  1.0
  Ti  Ti2366  1  0.60322899  0.10348143  0.74475377  1.0
  Ti  Ti2367  1  0.60322899  0.24633858  0.74475377  1.0
  Ti  Ti2368  1  0.60322899  0.38919572  0.74475377  1.0
  Ti  Ti2369  1  0.60322899  0.53205286  0.74475377  1.0
  Ti  Ti2370  1  0.60322899  0.67491000  0.74475377  1.0
  Ti  Ti2371  1  0.60322899  0.81776715  0.74475377  1.0
  Ti  Ti2372  1  0.60322899  0.96062429  0.74475377  1.0
  Ti  Ti2373  1  0.71434010  0.10348143  0.74475377  1.0
  Ti  Ti2374  1  0.71434010  0.24633858  0.74475377  1.0
  Ti  Ti2375  1  0.71434010  0.38919572  0.74475377  1.0
  Ti  Ti2376  1  0.71434010  0.53205286  0.74475377  1.0
  Ti  Ti2377  1  0.71434010  0.67491000  0.74475377  1.0
  Ti  Ti2378  1  0.71434010  0.81776715  0.74475377  1.0
  Ti  Ti2379  1  0.71434010  0.96062429  0.74475377  1.0
  Ti  Ti2380  1  0.82545121  0.10348143  0.74475377  1.0
  Ti  Ti2381  1  0.82545121  0.24633858  0.74475377  1.0
  Ti  Ti2382  1  0.82545121  0.38919572  0.74475377  1.0
  Ti  Ti2383  1  0.82545121  0.53205286  0.74475377  1.0
  Ti  Ti2384  1  0.82545121  0.67491000  0.74475377  1.0
  Ti  Ti2385  1  0.82545121  0.81776715  0.74475377  1.0
  Ti  Ti2386  1  0.82545121  0.96062429  0.74475377  1.0
  Ti  Ti2387  1  0.93656232  0.10348143  0.74475377  1.0
  Ti  Ti2388  1  0.93656232  0.24633858  0.74475377  1.0
  Ti  Ti2389  1  0.93656232  0.38919572  0.74475377  1.0
  Ti  Ti2390  1  0.93656232  0.53205286  0.74475377  1.0
  Ti  Ti2391  1  0.93656232  0.67491000  0.74475377  1.0
  Ti  Ti2392  1  0.93656232  0.81776715  0.74475377  1.0
  Ti  Ti2393  1  0.93656232  0.96062429  0.74475377  1.0
  Ti  Ti2394  1  0.00534539  0.07627055  0.64951567  1.0
  Ti  Ti2395  1  0.00534539  0.21912769  0.64951567  1.0
  Ti  Ti2396  1  0.00534539  0.36198483  0.64951567  1.0
  Ti  Ti2397  1  0.00534539  0.50484198  0.64951567  1.0
  Ti  Ti2398  1  0.00534539  0.64769912  0.64951567  1.0
  Ti  Ti2399  1  0.00534539  0.79055626  0.64951567  1.0
  Ti  Ti2400  1  0.00534539  0.93341341  0.64951567  1.0
  Ti  Ti2401  1  0.11645650  0.07627055  0.64951567  1.0
  Ti  Ti2402  1  0.11645650  0.21912769  0.64951567  1.0
  Ti  Ti2403  1  0.11645650  0.36198483  0.64951567  1.0
  Ti  Ti2404  1  0.11645650  0.50484198  0.64951567  1.0
  Ti  Ti2405  1  0.11645650  0.64769912  0.64951567  1.0
  Ti  Ti2406  1  0.11645650  0.79055626  0.64951567  1.0
  Ti  Ti2407  1  0.11645650  0.93341341  0.64951567  1.0
  Ti  Ti2408  1  0.22756761  0.07627055  0.64951567  1.0
  Ti  Ti2409  1  0.22756761  0.21912769  0.64951567  1.0
  Ti  Ti2410  1  0.22756761  0.36198483  0.64951567  1.0
  Ti  Ti2411  1  0.22756761  0.50484198  0.64951567  1.0
  Ti  Ti2412  1  0.22756761  0.64769912  0.64951567  1.0
  Ti  Ti2413  1  0.22756761  0.79055626  0.64951567  1.0
  Ti  Ti2414  1  0.22756761  0.93341341  0.64951567  1.0
  Ti  Ti2415  1  0.33867872  0.07627055  0.64951567  1.0
  Ti  Ti2416  1  0.33867872  0.21912769  0.64951567  1.0
  Ti  Ti2417  1  0.33867872  0.36198483  0.64951567  1.0
  Ti  Ti2418  1  0.33867872  0.50484198  0.64951567  1.0
  Ti  Ti2419  1  0.33867872  0.64769912  0.64951567  1.0
  Ti  Ti2420  1  0.33867872  0.79055626  0.64951567  1.0
  Ti  Ti2421  1  0.33867872  0.93341341  0.64951567  1.0
  Ti  Ti2422  1  0.44978983  0.07627055  0.64951567  1.0
  Ti  Ti2423  1  0.44978983  0.21912769  0.64951567  1.0
  Ti  Ti2424  1  0.44978983  0.36198483  0.64951567  1.0
  Ti  Ti2425  1  0.44978983  0.50484198  0.64951567  1.0
  Ti  Ti2426  1  0.44978983  0.64769912  0.64951567  1.0
  Ti  Ti2427  1  0.44978983  0.79055626  0.64951567  1.0
  Ti  Ti2428  1  0.44978983  0.93341341  0.64951567  1.0
  Ti  Ti2429  1  0.56090094  0.07627055  0.64951567  1.0
  Ti  Ti2430  1  0.56090094  0.21912769  0.64951567  1.0
  Ti  Ti2431  1  0.56090094  0.36198483  0.64951567  1.0
  Ti  Ti2432  1  0.56090094  0.50484198  0.64951567  1.0
  Ti  Ti2433  1  0.56090094  0.64769912  0.64951567  1.0
  Ti  Ti2434  1  0.56090094  0.79055626  0.64951567  1.0
  Ti  Ti2435  1  0.56090094  0.93341341  0.64951567  1.0
  Ti  Ti2436  1  0.67201205  0.07627055  0.64951567  1.0
  Ti  Ti2437  1  0.67201205  0.21912769  0.64951567  1.0
  Ti  Ti2438  1  0.67201205  0.36198483  0.64951567  1.0
  Ti  Ti2439  1  0.67201205  0.50484198  0.64951567  1.0
  Ti  Ti2440  1  0.67201205  0.64769912  0.64951567  1.0
  Ti  Ti2441  1  0.67201205  0.79055626  0.64951567  1.0
  Ti  Ti2442  1  0.67201205  0.93341341  0.64951567  1.0
  Ti  Ti2443  1  0.78312317  0.07627055  0.64951567  1.0
  Ti  Ti2444  1  0.78312317  0.21912769  0.64951567  1.0
  Ti  Ti2445  1  0.78312317  0.36198483  0.64951567  1.0
  Ti  Ti2446  1  0.78312317  0.50484198  0.64951567  1.0
  Ti  Ti2447  1  0.78312317  0.64769912  0.64951567  1.0
  Ti  Ti2448  1  0.78312317  0.79055626  0.64951567  1.0
  Ti  Ti2449  1  0.78312317  0.93341341  0.64951567  1.0
  Ti  Ti2450  1  0.89423428  0.07627055  0.64951567  1.0
  Ti  Ti2451  1  0.89423428  0.21912769  0.64951567  1.0
  Ti  Ti2452  1  0.89423428  0.36198483  0.64951567  1.0
  Ti  Ti2453  1  0.89423428  0.50484198  0.64951567  1.0
  Ti  Ti2454  1  0.89423428  0.64769912  0.64951567  1.0
  Ti  Ti2455  1  0.89423428  0.79055626  0.64951567  1.0
  Ti  Ti2456  1  0.89423428  0.93341341  0.64951567  1.0
  Ti  Ti2457  1  0.09230353  0.04637958  0.71128990  1.0
  Ti  Ti2458  1  0.09230353  0.18923672  0.71128990  1.0
  Ti  Ti2459  1  0.09230353  0.33209387  0.71128990  1.0
  Ti  Ti2460  1  0.09230353  0.47495101  0.71128990  1.0
  Ti  Ti2461  1  0.09230353  0.61780815  0.71128990  1.0
  Ti  Ti2462  1  0.09230353  0.76066529  0.71128990  1.0
  Ti  Ti2463  1  0.09230353  0.90352244  0.71128990  1.0
  Ti  Ti2464  1  0.20341465  0.04637958  0.71128990  1.0
  Ti  Ti2465  1  0.20341465  0.18923672  0.71128990  1.0
  Ti  Ti2466  1  0.20341465  0.33209387  0.71128990  1.0
  Ti  Ti2467  1  0.20341465  0.47495101  0.71128990  1.0
  Ti  Ti2468  1  0.20341465  0.61780815  0.71128990  1.0
  Ti  Ti2469  1  0.20341465  0.76066529  0.71128990  1.0
  Ti  Ti2470  1  0.20341465  0.90352244  0.71128990  1.0
  Ti  Ti2471  1  0.31452576  0.04637958  0.71128990  1.0
  Ti  Ti2472  1  0.31452576  0.18923672  0.71128990  1.0
  Ti  Ti2473  1  0.31452576  0.33209387  0.71128990  1.0
  Ti  Ti2474  1  0.31452576  0.47495101  0.71128990  1.0
  Ti  Ti2475  1  0.31452576  0.61780815  0.71128990  1.0
  Ti  Ti2476  1  0.31452576  0.76066529  0.71128990  1.0
  Ti  Ti2477  1  0.31452576  0.90352244  0.71128990  1.0
  Ti  Ti2478  1  0.42563687  0.04637958  0.71128990  1.0
  Ti  Ti2479  1  0.42563687  0.18923672  0.71128990  1.0
  Ti  Ti2480  1  0.42563687  0.33209387  0.71128990  1.0
  Ti  Ti2481  1  0.42563687  0.47495101  0.71128990  1.0
  Ti  Ti2482  1  0.42563687  0.61780815  0.71128990  1.0
  Ti  Ti2483  1  0.42563687  0.76066529  0.71128990  1.0
  Ti  Ti2484  1  0.42563687  0.90352244  0.71128990  1.0
  Ti  Ti2485  1  0.53674798  0.04637958  0.71128990  1.0
  Ti  Ti2486  1  0.53674798  0.18923672  0.71128990  1.0
  Ti  Ti2487  1  0.53674798  0.33209387  0.71128990  1.0
  Ti  Ti2488  1  0.53674798  0.47495101  0.71128990  1.0
  Ti  Ti2489  1  0.53674798  0.61780815  0.71128990  1.0
  Ti  Ti2490  1  0.53674798  0.76066529  0.71128990  1.0
  Ti  Ti2491  1  0.53674798  0.90352244  0.71128990  1.0
  Ti  Ti2492  1  0.64785909  0.04637958  0.71128990  1.0
  Ti  Ti2493  1  0.64785909  0.18923672  0.71128990  1.0
  Ti  Ti2494  1  0.64785909  0.33209387  0.71128990  1.0
  Ti  Ti2495  1  0.64785909  0.47495101  0.71128990  1.0
  Ti  Ti2496  1  0.64785909  0.61780815  0.71128990  1.0
  Ti  Ti2497  1  0.64785909  0.76066529  0.71128990  1.0
  Ti  Ti2498  1  0.64785909  0.90352244  0.71128990  1.0
  Ti  Ti2499  1  0.75897020  0.04637958  0.71128990  1.0
  Ti  Ti2500  1  0.75897020  0.18923672  0.71128990  1.0
  Ti  Ti2501  1  0.75897020  0.33209387  0.71128990  1.0
  Ti  Ti2502  1  0.75897020  0.47495101  0.71128990  1.0
  Ti  Ti2503  1  0.75897020  0.61780815  0.71128990  1.0
  Ti  Ti2504  1  0.75897020  0.76066529  0.71128990  1.0
  Ti  Ti2505  1  0.75897020  0.90352244  0.71128990  1.0
  Ti  Ti2506  1  0.87008131  0.04637958  0.71128990  1.0
  Ti  Ti2507  1  0.87008131  0.18923672  0.71128990  1.0
  Ti  Ti2508  1  0.87008131  0.33209387  0.71128990  1.0
  Ti  Ti2509  1  0.87008131  0.47495101  0.71128990  1.0
  Ti  Ti2510  1  0.87008131  0.61780815  0.71128990  1.0
  Ti  Ti2511  1  0.87008131  0.76066529  0.71128990  1.0
  Ti  Ti2512  1  0.87008131  0.90352244  0.71128990  1.0
  Ti  Ti2513  1  0.98119242  0.04637958  0.71128990  1.0
  Ti  Ti2514  1  0.98119242  0.18923672  0.71128990  1.0
  Ti  Ti2515  1  0.98119242  0.33209387  0.71128990  1.0
  Ti  Ti2516  1  0.98119242  0.47495101  0.71128990  1.0
  Ti  Ti2517  1  0.98119242  0.61780815  0.71128990  1.0
  Ti  Ti2518  1  0.98119242  0.76066529  0.71128990  1.0
  Ti  Ti2519  1  0.98119242  0.90352244  0.71128990  1.0
  Ti  Ti2520  1  0.00235644  0.05998502  0.75890895  1.0
  Ti  Ti2521  1  0.00235644  0.20284217  0.75890895  1.0
  Ti  Ti2522  1  0.00235644  0.34569931  0.75890895  1.0
  Ti  Ti2523  1  0.00235644  0.48855645  0.75890895  1.0
  Ti  Ti2524  1  0.00235644  0.63141359  0.75890895  1.0
  Ti  Ti2525  1  0.00235644  0.77427074  0.75890895  1.0
  Ti  Ti2526  1  0.00235644  0.91712788  0.75890895  1.0
  Ti  Ti2527  1  0.11346756  0.05998502  0.75890895  1.0
  Ti  Ti2528  1  0.11346756  0.20284217  0.75890895  1.0
  Ti  Ti2529  1  0.11346756  0.34569931  0.75890895  1.0
  Ti  Ti2530  1  0.11346756  0.48855645  0.75890895  1.0
  Ti  Ti2531  1  0.11346756  0.63141359  0.75890895  1.0
  Ti  Ti2532  1  0.11346756  0.77427074  0.75890895  1.0
  Ti  Ti2533  1  0.11346756  0.91712788  0.75890895  1.0
  Ti  Ti2534  1  0.22457867  0.05998502  0.75890895  1.0
  Ti  Ti2535  1  0.22457867  0.20284217  0.75890895  1.0
  Ti  Ti2536  1  0.22457867  0.34569931  0.75890895  1.0
  Ti  Ti2537  1  0.22457867  0.48855645  0.75890895  1.0
  Ti  Ti2538  1  0.22457867  0.63141359  0.75890895  1.0
  Ti  Ti2539  1  0.22457867  0.77427074  0.75890895  1.0
  Ti  Ti2540  1  0.22457867  0.91712788  0.75890895  1.0
  Ti  Ti2541  1  0.33568978  0.05998502  0.75890895  1.0
  Ti  Ti2542  1  0.33568978  0.20284217  0.75890895  1.0
  Ti  Ti2543  1  0.33568978  0.34569931  0.75890895  1.0
  Ti  Ti2544  1  0.33568978  0.48855645  0.75890895  1.0
  Ti  Ti2545  1  0.33568978  0.63141359  0.75890895  1.0
  Ti  Ti2546  1  0.33568978  0.77427074  0.75890895  1.0
  Ti  Ti2547  1  0.33568978  0.91712788  0.75890895  1.0
  Ti  Ti2548  1  0.44680089  0.05998502  0.75890895  1.0
  Ti  Ti2549  1  0.44680089  0.20284217  0.75890895  1.0
  Ti  Ti2550  1  0.44680089  0.34569931  0.75890895  1.0
  Ti  Ti2551  1  0.44680089  0.48855645  0.75890895  1.0
  Ti  Ti2552  1  0.44680089  0.63141359  0.75890895  1.0
  Ti  Ti2553  1  0.44680089  0.77427074  0.75890895  1.0
  Ti  Ti2554  1  0.44680089  0.91712788  0.75890895  1.0
  Ti  Ti2555  1  0.55791200  0.05998502  0.75890895  1.0
  Ti  Ti2556  1  0.55791200  0.20284217  0.75890895  1.0
  Ti  Ti2557  1  0.55791200  0.34569931  0.75890895  1.0
  Ti  Ti2558  1  0.55791200  0.48855645  0.75890895  1.0
  Ti  Ti2559  1  0.55791200  0.63141359  0.75890895  1.0
  Ti  Ti2560  1  0.55791200  0.77427074  0.75890895  1.0
  Ti  Ti2561  1  0.55791200  0.91712788  0.75890895  1.0
  Ti  Ti2562  1  0.66902311  0.05998502  0.75890895  1.0
  Ti  Ti2563  1  0.66902311  0.20284217  0.75890895  1.0
  Ti  Ti2564  1  0.66902311  0.34569931  0.75890895  1.0
  Ti  Ti2565  1  0.66902311  0.48855645  0.75890895  1.0
  Ti  Ti2566  1  0.66902311  0.63141359  0.75890895  1.0
  Ti  Ti2567  1  0.66902311  0.77427074  0.75890895  1.0
  Ti  Ti2568  1  0.66902311  0.91712788  0.75890895  1.0
  Ti  Ti2569  1  0.78013422  0.05998502  0.75890895  1.0
  Ti  Ti2570  1  0.78013422  0.20284217  0.75890895  1.0
  Ti  Ti2571  1  0.78013422  0.34569931  0.75890895  1.0
  Ti  Ti2572  1  0.78013422  0.48855645  0.75890895  1.0
  Ti  Ti2573  1  0.78013422  0.63141359  0.75890895  1.0
  Ti  Ti2574  1  0.78013422  0.77427074  0.75890895  1.0
  Ti  Ti2575  1  0.78013422  0.91712788  0.75890895  1.0
  Ti  Ti2576  1  0.89124533  0.05998502  0.75890895  1.0
  Ti  Ti2577  1  0.89124533  0.20284217  0.75890895  1.0
  Ti  Ti2578  1  0.89124533  0.34569931  0.75890895  1.0
  Ti  Ti2579  1  0.89124533  0.48855645  0.75890895  1.0
  Ti  Ti2580  1  0.89124533  0.63141359  0.75890895  1.0
  Ti  Ti2581  1  0.89124533  0.77427074  0.75890895  1.0
  Ti  Ti2582  1  0.89124533  0.91712788  0.75890895  1.0
  Ti  Ti2583  1  0.07113951  0.03277414  0.66367086  1.0
  Ti  Ti2584  1  0.07113951  0.17563128  0.66367086  1.0
  Ti  Ti2585  1  0.07113951  0.31848842  0.66367086  1.0
  Ti  Ti2586  1  0.07113951  0.46134557  0.66367086  1.0
  Ti  Ti2587  1  0.07113951  0.60420271  0.66367086  1.0
  Ti  Ti2588  1  0.07113951  0.74705985  0.66367086  1.0
  Ti  Ti2589  1  0.07113951  0.88991700  0.66367086  1.0
  Ti  Ti2590  1  0.18225062  0.03277414  0.66367086  1.0
  Ti  Ti2591  1  0.18225062  0.17563128  0.66367086  1.0
  Ti  Ti2592  1  0.18225062  0.31848842  0.66367086  1.0
  Ti  Ti2593  1  0.18225062  0.46134557  0.66367086  1.0
  Ti  Ti2594  1  0.18225062  0.60420271  0.66367086  1.0
  Ti  Ti2595  1  0.18225062  0.74705985  0.66367086  1.0
  Ti  Ti2596  1  0.18225062  0.88991700  0.66367086  1.0
  Ti  Ti2597  1  0.29336174  0.03277414  0.66367086  1.0
  Ti  Ti2598  1  0.29336174  0.17563128  0.66367086  1.0
  Ti  Ti2599  1  0.29336174  0.31848842  0.66367086  1.0
  Ti  Ti2600  1  0.29336174  0.46134557  0.66367086  1.0
  Ti  Ti2601  1  0.29336174  0.60420271  0.66367086  1.0
  Ti  Ti2602  1  0.29336174  0.74705985  0.66367086  1.0
  Ti  Ti2603  1  0.29336174  0.88991700  0.66367086  1.0
  Ti  Ti2604  1  0.40447285  0.03277414  0.66367086  1.0
  Ti  Ti2605  1  0.40447285  0.17563128  0.66367086  1.0
  Ti  Ti2606  1  0.40447285  0.31848842  0.66367086  1.0
  Ti  Ti2607  1  0.40447285  0.46134557  0.66367086  1.0
  Ti  Ti2608  1  0.40447285  0.60420271  0.66367086  1.0
  Ti  Ti2609  1  0.40447285  0.74705985  0.66367086  1.0
  Ti  Ti2610  1  0.40447285  0.88991700  0.66367086  1.0
  Ti  Ti2611  1  0.51558396  0.03277414  0.66367086  1.0
  Ti  Ti2612  1  0.51558396  0.17563128  0.66367086  1.0
  Ti  Ti2613  1  0.51558396  0.31848842  0.66367086  1.0
  Ti  Ti2614  1  0.51558396  0.46134557  0.66367086  1.0
  Ti  Ti2615  1  0.51558396  0.60420271  0.66367086  1.0
  Ti  Ti2616  1  0.51558396  0.74705985  0.66367086  1.0
  Ti  Ti2617  1  0.51558396  0.88991700  0.66367086  1.0
  Ti  Ti2618  1  0.62669507  0.03277414  0.66367086  1.0
  Ti  Ti2619  1  0.62669507  0.17563128  0.66367086  1.0
  Ti  Ti2620  1  0.62669507  0.31848842  0.66367086  1.0
  Ti  Ti2621  1  0.62669507  0.46134557  0.66367086  1.0
  Ti  Ti2622  1  0.62669507  0.60420271  0.66367086  1.0
  Ti  Ti2623  1  0.62669507  0.74705985  0.66367086  1.0
  Ti  Ti2624  1  0.62669507  0.88991700  0.66367086  1.0
  Ti  Ti2625  1  0.73780618  0.03277414  0.66367086  1.0
  Ti  Ti2626  1  0.73780618  0.17563128  0.66367086  1.0
  Ti  Ti2627  1  0.73780618  0.31848842  0.66367086  1.0
  Ti  Ti2628  1  0.73780618  0.46134557  0.66367086  1.0
  Ti  Ti2629  1  0.73780618  0.60420271  0.66367086  1.0
  Ti  Ti2630  1  0.73780618  0.74705985  0.66367086  1.0
  Ti  Ti2631  1  0.73780618  0.88991700  0.66367086  1.0
  Ti  Ti2632  1  0.84891729  0.03277414  0.66367086  1.0
  Ti  Ti2633  1  0.84891729  0.17563128  0.66367086  1.0
  Ti  Ti2634  1  0.84891729  0.31848842  0.66367086  1.0
  Ti  Ti2635  1  0.84891729  0.46134557  0.66367086  1.0
  Ti  Ti2636  1  0.84891729  0.60420271  0.66367086  1.0
  Ti  Ti2637  1  0.84891729  0.74705985  0.66367086  1.0
  Ti  Ti2638  1  0.84891729  0.88991700  0.66367086  1.0
  Ti  Ti2639  1  0.96002840  0.03277414  0.66367086  1.0
  Ti  Ti2640  1  0.96002840  0.17563128  0.66367086  1.0
  Ti  Ti2641  1  0.96002840  0.31848842  0.66367086  1.0
  Ti  Ti2642  1  0.96002840  0.46134557  0.66367086  1.0
  Ti  Ti2643  1  0.96002840  0.60420271  0.66367086  1.0
  Ti  Ti2644  1  0.96002840  0.74705985  0.66367086  1.0
  Ti  Ti2645  1  0.96002840  0.88991700  0.66367086  1.0
  Ti  Ti2646  1  0.06794402  0.10468606  0.66536259  1.0
  Ti  Ti2647  1  0.06794402  0.24754321  0.66536259  1.0
  Ti  Ti2648  1  0.06794402  0.39040035  0.66536259  1.0
  Ti  Ti2649  1  0.06794402  0.53325749  0.66536259  1.0
  Ti  Ti2650  1  0.06794402  0.67611463  0.66536259  1.0
  Ti  Ti2651  1  0.06794402  0.81897178  0.66536259  1.0
  Ti  Ti2652  1  0.06794402  0.96182892  0.66536259  1.0
  Ti  Ti2653  1  0.17905513  0.10468606  0.66536259  1.0
  Ti  Ti2654  1  0.17905513  0.24754321  0.66536259  1.0
  Ti  Ti2655  1  0.17905513  0.39040035  0.66536259  1.0
  Ti  Ti2656  1  0.17905513  0.53325749  0.66536259  1.0
  Ti  Ti2657  1  0.17905513  0.67611463  0.66536259  1.0
  Ti  Ti2658  1  0.17905513  0.81897178  0.66536259  1.0
  Ti  Ti2659  1  0.17905513  0.96182892  0.66536259  1.0
  Ti  Ti2660  1  0.29016624  0.10468606  0.66536259  1.0
  Ti  Ti2661  1  0.29016624  0.24754321  0.66536259  1.0
  Ti  Ti2662  1  0.29016624  0.39040035  0.66536259  1.0
  Ti  Ti2663  1  0.29016624  0.53325749  0.66536259  1.0
  Ti  Ti2664  1  0.29016624  0.67611463  0.66536259  1.0
  Ti  Ti2665  1  0.29016624  0.81897178  0.66536259  1.0
  Ti  Ti2666  1  0.29016624  0.96182892  0.66536259  1.0
  Ti  Ti2667  1  0.40127735  0.10468606  0.66536259  1.0
  Ti  Ti2668  1  0.40127735  0.24754321  0.66536259  1.0
  Ti  Ti2669  1  0.40127735  0.39040035  0.66536259  1.0
  Ti  Ti2670  1  0.40127735  0.53325749  0.66536259  1.0
  Ti  Ti2671  1  0.40127735  0.67611463  0.66536259  1.0
  Ti  Ti2672  1  0.40127735  0.81897178  0.66536259  1.0
  Ti  Ti2673  1  0.40127735  0.96182892  0.66536259  1.0
  Ti  Ti2674  1  0.51238846  0.10468606  0.66536259  1.0
  Ti  Ti2675  1  0.51238846  0.24754321  0.66536259  1.0
  Ti  Ti2676  1  0.51238846  0.39040035  0.66536259  1.0
  Ti  Ti2677  1  0.51238846  0.53325749  0.66536259  1.0
  Ti  Ti2678  1  0.51238846  0.67611463  0.66536259  1.0
  Ti  Ti2679  1  0.51238846  0.81897178  0.66536259  1.0
  Ti  Ti2680  1  0.51238846  0.96182892  0.66536259  1.0
  Ti  Ti2681  1  0.62349957  0.10468606  0.66536259  1.0
  Ti  Ti2682  1  0.62349957  0.24754321  0.66536259  1.0
  Ti  Ti2683  1  0.62349957  0.39040035  0.66536259  1.0
  Ti  Ti2684  1  0.62349957  0.53325749  0.66536259  1.0
  Ti  Ti2685  1  0.62349957  0.67611463  0.66536259  1.0
  Ti  Ti2686  1  0.62349957  0.81897178  0.66536259  1.0
  Ti  Ti2687  1  0.62349957  0.96182892  0.66536259  1.0
  Ti  Ti2688  1  0.73461068  0.10468606  0.66536259  1.0
  Ti  Ti2689  1  0.73461068  0.24754321  0.66536259  1.0
  Ti  Ti2690  1  0.73461068  0.39040035  0.66536259  1.0
  Ti  Ti2691  1  0.73461068  0.53325749  0.66536259  1.0
  Ti  Ti2692  1  0.73461068  0.67611463  0.66536259  1.0
  Ti  Ti2693  1  0.73461068  0.81897178  0.66536259  1.0
  Ti  Ti2694  1  0.73461068  0.96182892  0.66536259  1.0
  Ti  Ti2695  1  0.84572180  0.10468606  0.66536259  1.0
  Ti  Ti2696  1  0.84572180  0.24754321  0.66536259  1.0
  Ti  Ti2697  1  0.84572180  0.39040035  0.66536259  1.0
  Ti  Ti2698  1  0.84572180  0.53325749  0.66536259  1.0
  Ti  Ti2699  1  0.84572180  0.67611463  0.66536259  1.0
  Ti  Ti2700  1  0.84572180  0.81897178  0.66536259  1.0
  Ti  Ti2701  1  0.84572180  0.96182892  0.66536259  1.0
  Ti  Ti2702  1  0.95683291  0.10468606  0.66536259  1.0
  Ti  Ti2703  1  0.95683291  0.24754321  0.66536259  1.0
  Ti  Ti2704  1  0.95683291  0.39040035  0.66536259  1.0
  Ti  Ti2705  1  0.95683291  0.53325749  0.66536259  1.0
  Ti  Ti2706  1  0.95683291  0.67611463  0.66536259  1.0
  Ti  Ti2707  1  0.95683291  0.81897178  0.66536259  1.0
  Ti  Ti2708  1  0.95683291  0.96182892  0.66536259  1.0
  Ti  Ti2709  1  0.08910804  0.11829150  0.71298164  1.0
  Ti  Ti2710  1  0.08910804  0.26114865  0.71298164  1.0
  Ti  Ti2711  1  0.08910804  0.40400579  0.71298164  1.0
  Ti  Ti2712  1  0.08910804  0.54686293  0.71298164  1.0
  Ti  Ti2713  1  0.08910804  0.68972008  0.71298164  1.0
  Ti  Ti2714  1  0.08910804  0.83257722  0.71298164  1.0
  Ti  Ti2715  1  0.08910804  0.97543436  0.71298164  1.0
  Ti  Ti2716  1  0.20021915  0.11829150  0.71298164  1.0
  Ti  Ti2717  1  0.20021915  0.26114865  0.71298164  1.0
  Ti  Ti2718  1  0.20021915  0.40400579  0.71298164  1.0
  Ti  Ti2719  1  0.20021915  0.54686293  0.71298164  1.0
  Ti  Ti2720  1  0.20021915  0.68972008  0.71298164  1.0
  Ti  Ti2721  1  0.20021915  0.83257722  0.71298164  1.0
  Ti  Ti2722  1  0.20021915  0.97543436  0.71298164  1.0
  Ti  Ti2723  1  0.31133026  0.11829150  0.71298164  1.0
  Ti  Ti2724  1  0.31133026  0.26114865  0.71298164  1.0
  Ti  Ti2725  1  0.31133026  0.40400579  0.71298164  1.0
  Ti  Ti2726  1  0.31133026  0.54686293  0.71298164  1.0
  Ti  Ti2727  1  0.31133026  0.68972008  0.71298164  1.0
  Ti  Ti2728  1  0.31133026  0.83257722  0.71298164  1.0
  Ti  Ti2729  1  0.31133026  0.97543436  0.71298164  1.0
  Ti  Ti2730  1  0.42244137  0.11829150  0.71298164  1.0
  Ti  Ti2731  1  0.42244137  0.26114865  0.71298164  1.0
  Ti  Ti2732  1  0.42244137  0.40400579  0.71298164  1.0
  Ti  Ti2733  1  0.42244137  0.54686293  0.71298164  1.0
  Ti  Ti2734  1  0.42244137  0.68972008  0.71298164  1.0
  Ti  Ti2735  1  0.42244137  0.83257722  0.71298164  1.0
  Ti  Ti2736  1  0.42244137  0.97543436  0.71298164  1.0
  Ti  Ti2737  1  0.53355248  0.11829150  0.71298164  1.0
  Ti  Ti2738  1  0.53355248  0.26114865  0.71298164  1.0
  Ti  Ti2739  1  0.53355248  0.40400579  0.71298164  1.0
  Ti  Ti2740  1  0.53355248  0.54686293  0.71298164  1.0
  Ti  Ti2741  1  0.53355248  0.68972008  0.71298164  1.0
  Ti  Ti2742  1  0.53355248  0.83257722  0.71298164  1.0
  Ti  Ti2743  1  0.53355248  0.97543436  0.71298164  1.0
  Ti  Ti2744  1  0.64466359  0.11829150  0.71298164  1.0
  Ti  Ti2745  1  0.64466359  0.26114865  0.71298164  1.0
  Ti  Ti2746  1  0.64466359  0.40400579  0.71298164  1.0
  Ti  Ti2747  1  0.64466359  0.54686293  0.71298164  1.0
  Ti  Ti2748  1  0.64466359  0.68972008  0.71298164  1.0
  Ti  Ti2749  1  0.64466359  0.83257722  0.71298164  1.0
  Ti  Ti2750  1  0.64466359  0.97543436  0.71298164  1.0
  Ti  Ti2751  1  0.75577471  0.11829150  0.71298164  1.0
  Ti  Ti2752  1  0.75577471  0.26114865  0.71298164  1.0
  Ti  Ti2753  1  0.75577471  0.40400579  0.71298164  1.0
  Ti  Ti2754  1  0.75577471  0.54686293  0.71298164  1.0
  Ti  Ti2755  1  0.75577471  0.68972008  0.71298164  1.0
  Ti  Ti2756  1  0.75577471  0.83257722  0.71298164  1.0
  Ti  Ti2757  1  0.75577471  0.97543436  0.71298164  1.0
  Ti  Ti2758  1  0.86688582  0.11829150  0.71298164  1.0
  Ti  Ti2759  1  0.86688582  0.26114865  0.71298164  1.0
  Ti  Ti2760  1  0.86688582  0.40400579  0.71298164  1.0
  Ti  Ti2761  1  0.86688582  0.54686293  0.71298164  1.0
  Ti  Ti2762  1  0.86688582  0.68972008  0.71298164  1.0
  Ti  Ti2763  1  0.86688582  0.83257722  0.71298164  1.0
  Ti  Ti2764  1  0.86688582  0.97543436  0.71298164  1.0
  Ti  Ti2765  1  0.97799693  0.11829150  0.71298164  1.0
  Ti  Ti2766  1  0.97799693  0.26114865  0.71298164  1.0
  Ti  Ti2767  1  0.97799693  0.40400579  0.71298164  1.0
  Ti  Ti2768  1  0.97799693  0.54686293  0.71298164  1.0
  Ti  Ti2769  1  0.97799693  0.68972008  0.71298164  1.0
  Ti  Ti2770  1  0.97799693  0.83257722  0.71298164  1.0
  Ti  Ti2771  1  0.97799693  0.97543436  0.71298164  1.0
  Ti  Ti2772  1  0.11027206  0.13189695  0.76060069  1.0
  Ti  Ti2773  1  0.11027206  0.27475409  0.76060069  1.0
  Ti  Ti2774  1  0.11027206  0.41761123  0.76060069  1.0
  Ti  Ti2775  1  0.11027206  0.56046838  0.76060069  1.0
  Ti  Ti2776  1  0.11027206  0.70332552  0.76060069  1.0
  Ti  Ti2777  1  0.11027206  0.84618266  0.76060069  1.0
  Ti  Ti2778  1  0.11027206  0.98903980  0.76060069  1.0
  Ti  Ti2779  1  0.22138317  0.13189695  0.76060069  1.0
  Ti  Ti2780  1  0.22138317  0.27475409  0.76060069  1.0
  Ti  Ti2781  1  0.22138317  0.41761123  0.76060069  1.0
  Ti  Ti2782  1  0.22138317  0.56046838  0.76060069  1.0
  Ti  Ti2783  1  0.22138317  0.70332552  0.76060069  1.0
  Ti  Ti2784  1  0.22138317  0.84618266  0.76060069  1.0
  Ti  Ti2785  1  0.22138317  0.98903980  0.76060069  1.0
  Ti  Ti2786  1  0.33249428  0.13189695  0.76060069  1.0
  Ti  Ti2787  1  0.33249428  0.27475409  0.76060069  1.0
  Ti  Ti2788  1  0.33249428  0.41761123  0.76060069  1.0
  Ti  Ti2789  1  0.33249428  0.56046838  0.76060069  1.0
  Ti  Ti2790  1  0.33249428  0.70332552  0.76060069  1.0
  Ti  Ti2791  1  0.33249428  0.84618266  0.76060069  1.0
  Ti  Ti2792  1  0.33249428  0.98903980  0.76060069  1.0
  Ti  Ti2793  1  0.44360539  0.13189695  0.76060069  1.0
  Ti  Ti2794  1  0.44360539  0.27475409  0.76060069  1.0
  Ti  Ti2795  1  0.44360539  0.41761123  0.76060069  1.0
  Ti  Ti2796  1  0.44360539  0.56046838  0.76060069  1.0
  Ti  Ti2797  1  0.44360539  0.70332552  0.76060069  1.0
  Ti  Ti2798  1  0.44360539  0.84618266  0.76060069  1.0
  Ti  Ti2799  1  0.44360539  0.98903980  0.76060069  1.0
  Ti  Ti2800  1  0.55471650  0.13189695  0.76060069  1.0
  Ti  Ti2801  1  0.55471650  0.27475409  0.76060069  1.0
  Ti  Ti2802  1  0.55471650  0.41761123  0.76060069  1.0
  Ti  Ti2803  1  0.55471650  0.56046838  0.76060069  1.0
  Ti  Ti2804  1  0.55471650  0.70332552  0.76060069  1.0
  Ti  Ti2805  1  0.55471650  0.84618266  0.76060069  1.0
  Ti  Ti2806  1  0.55471650  0.98903980  0.76060069  1.0
  Ti  Ti2807  1  0.66582762  0.13189695  0.76060069  1.0
  Ti  Ti2808  1  0.66582762  0.27475409  0.76060069  1.0
  Ti  Ti2809  1  0.66582762  0.41761123  0.76060069  1.0
  Ti  Ti2810  1  0.66582762  0.56046838  0.76060069  1.0
  Ti  Ti2811  1  0.66582762  0.70332552  0.76060069  1.0
  Ti  Ti2812  1  0.66582762  0.84618266  0.76060069  1.0
  Ti  Ti2813  1  0.66582762  0.98903980  0.76060069  1.0
  Ti  Ti2814  1  0.77693873  0.13189695  0.76060069  1.0
  Ti  Ti2815  1  0.77693873  0.27475409  0.76060069  1.0
  Ti  Ti2816  1  0.77693873  0.41761123  0.76060069  1.0
  Ti  Ti2817  1  0.77693873  0.56046838  0.76060069  1.0
  Ti  Ti2818  1  0.77693873  0.70332552  0.76060069  1.0
  Ti  Ti2819  1  0.77693873  0.84618266  0.76060069  1.0
  Ti  Ti2820  1  0.77693873  0.98903980  0.76060069  1.0
  Ti  Ti2821  1  0.88804984  0.13189695  0.76060069  1.0
  Ti  Ti2822  1  0.88804984  0.27475409  0.76060069  1.0
  Ti  Ti2823  1  0.88804984  0.41761123  0.76060069  1.0
  Ti  Ti2824  1  0.88804984  0.56046838  0.76060069  1.0
  Ti  Ti2825  1  0.88804984  0.70332552  0.76060069  1.0
  Ti  Ti2826  1  0.88804984  0.84618266  0.76060069  1.0
  Ti  Ti2827  1  0.88804984  0.98903980  0.76060069  1.0
  Ti  Ti2828  1  0.99916095  0.13189695  0.76060069  1.0
  Ti  Ti2829  1  0.99916095  0.27475409  0.76060069  1.0
  Ti  Ti2830  1  0.99916095  0.41761123  0.76060069  1.0
  Ti  Ti2831  1  0.99916095  0.56046838  0.76060069  1.0
  Ti  Ti2832  1  0.99916095  0.70332552  0.76060069  1.0
  Ti  Ti2833  1  0.99916095  0.84618266  0.76060069  1.0
  Ti  Ti2834  1  0.99916095  0.98903980  0.76060069  1.0
  Ti  Ti2835  1  0.05086893  0.03156951  0.74306204  1.0
  Ti  Ti2836  1  0.05086893  0.17442665  0.74306204  1.0
  Ti  Ti2837  1  0.05086893  0.31728380  0.74306204  1.0
  Ti  Ti2838  1  0.05086893  0.46014094  0.74306204  1.0
  Ti  Ti2839  1  0.05086893  0.60299808  0.74306204  1.0
  Ti  Ti2840  1  0.05086893  0.74585522  0.74306204  1.0
  Ti  Ti2841  1  0.05086893  0.88871237  0.74306204  1.0
  Ti  Ti2842  1  0.16198004  0.03156951  0.74306204  1.0
  Ti  Ti2843  1  0.16198004  0.17442665  0.74306204  1.0
  Ti  Ti2844  1  0.16198004  0.31728380  0.74306204  1.0
  Ti  Ti2845  1  0.16198004  0.46014094  0.74306204  1.0
  Ti  Ti2846  1  0.16198004  0.60299808  0.74306204  1.0
  Ti  Ti2847  1  0.16198004  0.74585522  0.74306204  1.0
  Ti  Ti2848  1  0.16198004  0.88871237  0.74306204  1.0
  Ti  Ti2849  1  0.27309115  0.03156951  0.74306204  1.0
  Ti  Ti2850  1  0.27309115  0.17442665  0.74306204  1.0
  Ti  Ti2851  1  0.27309115  0.31728380  0.74306204  1.0
  Ti  Ti2852  1  0.27309115  0.46014094  0.74306204  1.0
  Ti  Ti2853  1  0.27309115  0.60299808  0.74306204  1.0
  Ti  Ti2854  1  0.27309115  0.74585522  0.74306204  1.0
  Ti  Ti2855  1  0.27309115  0.88871237  0.74306204  1.0
  Ti  Ti2856  1  0.38420226  0.03156951  0.74306204  1.0
  Ti  Ti2857  1  0.38420226  0.17442665  0.74306204  1.0
  Ti  Ti2858  1  0.38420226  0.31728380  0.74306204  1.0
  Ti  Ti2859  1  0.38420226  0.46014094  0.74306204  1.0
  Ti  Ti2860  1  0.38420226  0.60299808  0.74306204  1.0
  Ti  Ti2861  1  0.38420226  0.74585522  0.74306204  1.0
  Ti  Ti2862  1  0.38420226  0.88871237  0.74306204  1.0
  Ti  Ti2863  1  0.49531337  0.03156951  0.74306204  1.0
  Ti  Ti2864  1  0.49531337  0.17442665  0.74306204  1.0
  Ti  Ti2865  1  0.49531337  0.31728380  0.74306204  1.0
  Ti  Ti2866  1  0.49531337  0.46014094  0.74306204  1.0
  Ti  Ti2867  1  0.49531337  0.60299808  0.74306204  1.0
  Ti  Ti2868  1  0.49531337  0.74585522  0.74306204  1.0
  Ti  Ti2869  1  0.49531337  0.88871237  0.74306204  1.0
  Ti  Ti2870  1  0.60642448  0.03156951  0.74306204  1.0
  Ti  Ti2871  1  0.60642448  0.17442665  0.74306204  1.0
  Ti  Ti2872  1  0.60642448  0.31728380  0.74306204  1.0
  Ti  Ti2873  1  0.60642448  0.46014094  0.74306204  1.0
  Ti  Ti2874  1  0.60642448  0.60299808  0.74306204  1.0
  Ti  Ti2875  1  0.60642448  0.74585522  0.74306204  1.0
  Ti  Ti2876  1  0.60642448  0.88871237  0.74306204  1.0
  Ti  Ti2877  1  0.71753559  0.03156951  0.74306204  1.0
  Ti  Ti2878  1  0.71753559  0.17442665  0.74306204  1.0
  Ti  Ti2879  1  0.71753559  0.31728380  0.74306204  1.0
  Ti  Ti2880  1  0.71753559  0.46014094  0.74306204  1.0
  Ti  Ti2881  1  0.71753559  0.60299808  0.74306204  1.0
  Ti  Ti2882  1  0.71753559  0.74585522  0.74306204  1.0
  Ti  Ti2883  1  0.71753559  0.88871237  0.74306204  1.0
  Ti  Ti2884  1  0.82864670  0.03156951  0.74306204  1.0
  Ti  Ti2885  1  0.82864670  0.17442665  0.74306204  1.0
  Ti  Ti2886  1  0.82864670  0.31728380  0.74306204  1.0
  Ti  Ti2887  1  0.82864670  0.46014094  0.74306204  1.0
  Ti  Ti2888  1  0.82864670  0.60299808  0.74306204  1.0
  Ti  Ti2889  1  0.82864670  0.74585522  0.74306204  1.0
  Ti  Ti2890  1  0.82864670  0.88871237  0.74306204  1.0
  Ti  Ti2891  1  0.93975782  0.03156951  0.74306204  1.0
  Ti  Ti2892  1  0.93975782  0.17442665  0.74306204  1.0
  Ti  Ti2893  1  0.93975782  0.31728380  0.74306204  1.0
  Ti  Ti2894  1  0.93975782  0.46014094  0.74306204  1.0
  Ti  Ti2895  1  0.93975782  0.60299808  0.74306204  1.0
  Ti  Ti2896  1  0.93975782  0.74585522  0.74306204  1.0
  Ti  Ti2897  1  0.93975782  0.88871237  0.74306204  1.0
  Ti  Ti2898  1  0.00854088  0.00435863  0.64782394  1.0
  Ti  Ti2899  1  0.00854088  0.14721577  0.64782394  1.0
  Ti  Ti2900  1  0.00854088  0.29007291  0.64782394  1.0
  Ti  Ti2901  1  0.00854088  0.43293005  0.64782394  1.0
  Ti  Ti2902  1  0.00854088  0.57578720  0.64782394  1.0
  Ti  Ti2903  1  0.00854088  0.71864434  0.64782394  1.0
  Ti  Ti2904  1  0.00854088  0.86150148  0.64782394  1.0
  Ti  Ti2905  1  0.11965200  0.00435863  0.64782394  1.0
  Ti  Ti2906  1  0.11965200  0.14721577  0.64782394  1.0
  Ti  Ti2907  1  0.11965200  0.29007291  0.64782394  1.0
  Ti  Ti2908  1  0.11965200  0.43293005  0.64782394  1.0
  Ti  Ti2909  1  0.11965200  0.57578720  0.64782394  1.0
  Ti  Ti2910  1  0.11965200  0.71864434  0.64782394  1.0
  Ti  Ti2911  1  0.11965200  0.86150148  0.64782394  1.0
  Ti  Ti2912  1  0.23076311  0.00435863  0.64782394  1.0
  Ti  Ti2913  1  0.23076311  0.14721577  0.64782394  1.0
  Ti  Ti2914  1  0.23076311  0.29007291  0.64782394  1.0
  Ti  Ti2915  1  0.23076311  0.43293005  0.64782394  1.0
  Ti  Ti2916  1  0.23076311  0.57578720  0.64782394  1.0
  Ti  Ti2917  1  0.23076311  0.71864434  0.64782394  1.0
  Ti  Ti2918  1  0.23076311  0.86150148  0.64782394  1.0
  Ti  Ti2919  1  0.34187422  0.00435863  0.64782394  1.0
  Ti  Ti2920  1  0.34187422  0.14721577  0.64782394  1.0
  Ti  Ti2921  1  0.34187422  0.29007291  0.64782394  1.0
  Ti  Ti2922  1  0.34187422  0.43293005  0.64782394  1.0
  Ti  Ti2923  1  0.34187422  0.57578720  0.64782394  1.0
  Ti  Ti2924  1  0.34187422  0.71864434  0.64782394  1.0
  Ti  Ti2925  1  0.34187422  0.86150148  0.64782394  1.0
  Ti  Ti2926  1  0.45298533  0.00435863  0.64782394  1.0
  Ti  Ti2927  1  0.45298533  0.14721577  0.64782394  1.0
  Ti  Ti2928  1  0.45298533  0.29007291  0.64782394  1.0
  Ti  Ti2929  1  0.45298533  0.43293005  0.64782394  1.0
  Ti  Ti2930  1  0.45298533  0.57578720  0.64782394  1.0
  Ti  Ti2931  1  0.45298533  0.71864434  0.64782394  1.0
  Ti  Ti2932  1  0.45298533  0.86150148  0.64782394  1.0
  Ti  Ti2933  1  0.56409644  0.00435863  0.64782394  1.0
  Ti  Ti2934  1  0.56409644  0.14721577  0.64782394  1.0
  Ti  Ti2935  1  0.56409644  0.29007291  0.64782394  1.0
  Ti  Ti2936  1  0.56409644  0.43293005  0.64782394  1.0
  Ti  Ti2937  1  0.56409644  0.57578720  0.64782394  1.0
  Ti  Ti2938  1  0.56409644  0.71864434  0.64782394  1.0
  Ti  Ti2939  1  0.56409644  0.86150148  0.64782394  1.0
  Ti  Ti2940  1  0.67520755  0.00435863  0.64782394  1.0
  Ti  Ti2941  1  0.67520755  0.14721577  0.64782394  1.0
  Ti  Ti2942  1  0.67520755  0.29007291  0.64782394  1.0
  Ti  Ti2943  1  0.67520755  0.43293005  0.64782394  1.0
  Ti  Ti2944  1  0.67520755  0.57578720  0.64782394  1.0
  Ti  Ti2945  1  0.67520755  0.71864434  0.64782394  1.0
  Ti  Ti2946  1  0.67520755  0.86150148  0.64782394  1.0
  Ti  Ti2947  1  0.78631866  0.00435863  0.64782394  1.0
  Ti  Ti2948  1  0.78631866  0.14721577  0.64782394  1.0
  Ti  Ti2949  1  0.78631866  0.29007291  0.64782394  1.0
  Ti  Ti2950  1  0.78631866  0.43293005  0.64782394  1.0
  Ti  Ti2951  1  0.78631866  0.57578720  0.64782394  1.0
  Ti  Ti2952  1  0.78631866  0.71864434  0.64782394  1.0
  Ti  Ti2953  1  0.78631866  0.86150148  0.64782394  1.0
  Ti  Ti2954  1  0.89742977  0.00435863  0.64782394  1.0
  Ti  Ti2955  1  0.89742977  0.14721577  0.64782394  1.0
  Ti  Ti2956  1  0.89742977  0.29007291  0.64782394  1.0
  Ti  Ti2957  1  0.89742977  0.43293005  0.64782394  1.0
  Ti  Ti2958  1  0.89742977  0.57578720  0.64782394  1.0
  Ti  Ti2959  1  0.89742977  0.71864434  0.64782394  1.0
  Ti  Ti2960  1  0.89742977  0.86150148  0.64782394  1.0
  Ti  Ti2961  1  0.02970491  0.01796407  0.69544299  1.0
  Ti  Ti2962  1  0.02970491  0.16082121  0.69544299  1.0
  Ti  Ti2963  1  0.02970491  0.30367835  0.69544299  1.0
  Ti  Ti2964  1  0.02970491  0.44653550  0.69544299  1.0
  Ti  Ti2965  1  0.02970491  0.58939264  0.69544299  1.0
  Ti  Ti2966  1  0.02970491  0.73224978  0.69544299  1.0
  Ti  Ti2967  1  0.02970491  0.87510692  0.69544299  1.0
  Ti  Ti2968  1  0.14081602  0.01796407  0.69544299  1.0
  Ti  Ti2969  1  0.14081602  0.16082121  0.69544299  1.0
  Ti  Ti2970  1  0.14081602  0.30367835  0.69544299  1.0
  Ti  Ti2971  1  0.14081602  0.44653550  0.69544299  1.0
  Ti  Ti2972  1  0.14081602  0.58939264  0.69544299  1.0
  Ti  Ti2973  1  0.14081602  0.73224978  0.69544299  1.0
  Ti  Ti2974  1  0.14081602  0.87510692  0.69544299  1.0
  Ti  Ti2975  1  0.25192713  0.01796407  0.69544299  1.0
  Ti  Ti2976  1  0.25192713  0.16082121  0.69544299  1.0
  Ti  Ti2977  1  0.25192713  0.30367835  0.69544299  1.0
  Ti  Ti2978  1  0.25192713  0.44653550  0.69544299  1.0
  Ti  Ti2979  1  0.25192713  0.58939264  0.69544299  1.0
  Ti  Ti2980  1  0.25192713  0.73224978  0.69544299  1.0
  Ti  Ti2981  1  0.25192713  0.87510692  0.69544299  1.0
  Ti  Ti2982  1  0.36303824  0.01796407  0.69544299  1.0
  Ti  Ti2983  1  0.36303824  0.16082121  0.69544299  1.0
  Ti  Ti2984  1  0.36303824  0.30367835  0.69544299  1.0
  Ti  Ti2985  1  0.36303824  0.44653550  0.69544299  1.0
  Ti  Ti2986  1  0.36303824  0.58939264  0.69544299  1.0
  Ti  Ti2987  1  0.36303824  0.73224978  0.69544299  1.0
  Ti  Ti2988  1  0.36303824  0.87510692  0.69544299  1.0
  Ti  Ti2989  1  0.47414935  0.01796407  0.69544299  1.0
  Ti  Ti2990  1  0.47414935  0.16082121  0.69544299  1.0
  Ti  Ti2991  1  0.47414935  0.30367835  0.69544299  1.0
  Ti  Ti2992  1  0.47414935  0.44653550  0.69544299  1.0
  Ti  Ti2993  1  0.47414935  0.58939264  0.69544299  1.0
  Ti  Ti2994  1  0.47414935  0.73224978  0.69544299  1.0
  Ti  Ti2995  1  0.47414935  0.87510692  0.69544299  1.0
  Ti  Ti2996  1  0.58526046  0.01796407  0.69544299  1.0
  Ti  Ti2997  1  0.58526046  0.16082121  0.69544299  1.0
  Ti  Ti2998  1  0.58526046  0.30367835  0.69544299  1.0
  Ti  Ti2999  1  0.58526046  0.44653550  0.69544299  1.0
  Ti  Ti3000  1  0.58526046  0.58939264  0.69544299  1.0
  Ti  Ti3001  1  0.58526046  0.73224978  0.69544299  1.0
  Ti  Ti3002  1  0.58526046  0.87510692  0.69544299  1.0
  Ti  Ti3003  1  0.69637157  0.01796407  0.69544299  1.0
  Ti  Ti3004  1  0.69637157  0.16082121  0.69544299  1.0
  Ti  Ti3005  1  0.69637157  0.30367835  0.69544299  1.0
  Ti  Ti3006  1  0.69637157  0.44653550  0.69544299  1.0
  Ti  Ti3007  1  0.69637157  0.58939264  0.69544299  1.0
  Ti  Ti3008  1  0.69637157  0.73224978  0.69544299  1.0
  Ti  Ti3009  1  0.69637157  0.87510692  0.69544299  1.0
  Ti  Ti3010  1  0.80748268  0.01796407  0.69544299  1.0
  Ti  Ti3011  1  0.80748268  0.16082121  0.69544299  1.0
  Ti  Ti3012  1  0.80748268  0.30367835  0.69544299  1.0
  Ti  Ti3013  1  0.80748268  0.44653550  0.69544299  1.0
  Ti  Ti3014  1  0.80748268  0.58939264  0.69544299  1.0
  Ti  Ti3015  1  0.80748268  0.73224978  0.69544299  1.0
  Ti  Ti3016  1  0.80748268  0.87510692  0.69544299  1.0
  Ti  Ti3017  1  0.91859379  0.01796407  0.69544299  1.0
  Ti  Ti3018  1  0.91859379  0.16082121  0.69544299  1.0
  Ti  Ti3019  1  0.91859379  0.30367835  0.69544299  1.0
  Ti  Ti3020  1  0.91859379  0.44653550  0.69544299  1.0
  Ti  Ti3021  1  0.91859379  0.58939264  0.69544299  1.0
  Ti  Ti3022  1  0.91859379  0.73224978  0.69544299  1.0
  Ti  Ti3023  1  0.91859379  0.87510692  0.69544299  1.0
  P  P3024  1  0.10144960  0.03701731  0.27683799  1.0
  P  P3025  1  0.10144960  0.17987445  0.27683799  1.0
  P  P3026  1  0.10144960  0.32273159  0.27683799  1.0
  P  P3027  1  0.10144960  0.46558874  0.27683799  1.0
  P  P3028  1  0.10144960  0.60844588  0.27683799  1.0
  P  P3029  1  0.10144960  0.75130302  0.27683799  1.0
  P  P3030  1  0.10144960  0.89416016  0.27683799  1.0
  P  P3031  1  0.21256071  0.03701731  0.27683799  1.0
  P  P3032  1  0.21256071  0.17987445  0.27683799  1.0
  P  P3033  1  0.21256071  0.32273159  0.27683799  1.0
  P  P3034  1  0.21256071  0.46558874  0.27683799  1.0
  P  P3035  1  0.21256071  0.60844588  0.27683799  1.0
  P  P3036  1  0.21256071  0.75130302  0.27683799  1.0
  P  P3037  1  0.21256071  0.89416016  0.27683799  1.0
  P  P3038  1  0.32367182  0.03701731  0.27683799  1.0
  P  P3039  1  0.32367182  0.17987445  0.27683799  1.0
  P  P3040  1  0.32367182  0.32273159  0.27683799  1.0
  P  P3041  1  0.32367182  0.46558874  0.27683799  1.0
  P  P3042  1  0.32367182  0.60844588  0.27683799  1.0
  P  P3043  1  0.32367182  0.75130302  0.27683799  1.0
  P  P3044  1  0.32367182  0.89416016  0.27683799  1.0
  P  P3045  1  0.43478293  0.03701731  0.27683799  1.0
  P  P3046  1  0.43478293  0.17987445  0.27683799  1.0
  P  P3047  1  0.43478293  0.32273159  0.27683799  1.0
  P  P3048  1  0.43478293  0.46558874  0.27683799  1.0
  P  P3049  1  0.43478293  0.60844588  0.27683799  1.0
  P  P3050  1  0.43478293  0.75130302  0.27683799  1.0
  P  P3051  1  0.43478293  0.89416016  0.27683799  1.0
  P  P3052  1  0.54589405  0.03701731  0.27683799  1.0
  P  P3053  1  0.54589405  0.17987445  0.27683799  1.0
  P  P3054  1  0.54589405  0.32273159  0.27683799  1.0
  P  P3055  1  0.54589405  0.46558874  0.27683799  1.0
  P  P3056  1  0.54589405  0.60844588  0.27683799  1.0
  P  P3057  1  0.54589405  0.75130302  0.27683799  1.0
  P  P3058  1  0.54589405  0.89416016  0.27683799  1.0
  P  P3059  1  0.65700516  0.03701731  0.27683799  1.0
  P  P3060  1  0.65700516  0.17987445  0.27683799  1.0
  P  P3061  1  0.65700516  0.32273159  0.27683799  1.0
  P  P3062  1  0.65700516  0.46558874  0.27683799  1.0
  P  P3063  1  0.65700516  0.60844588  0.27683799  1.0
  P  P3064  1  0.65700516  0.75130302  0.27683799  1.0
  P  P3065  1  0.65700516  0.89416016  0.27683799  1.0
  P  P3066  1  0.76811627  0.03701731  0.27683799  1.0
  P  P3067  1  0.76811627  0.17987445  0.27683799  1.0
  P  P3068  1  0.76811627  0.32273159  0.27683799  1.0
  P  P3069  1  0.76811627  0.46558874  0.27683799  1.0
  P  P3070  1  0.76811627  0.60844588  0.27683799  1.0
  P  P3071  1  0.76811627  0.75130302  0.27683799  1.0
  P  P3072  1  0.76811627  0.89416016  0.27683799  1.0
  P  P3073  1  0.87922738  0.03701731  0.27683799  1.0
  P  P3074  1  0.87922738  0.17987445  0.27683799  1.0
  P  P3075  1  0.87922738  0.32273159  0.27683799  1.0
  P  P3076  1  0.87922738  0.46558874  0.27683799  1.0
  P  P3077  1  0.87922738  0.60844588  0.27683799  1.0
  P  P3078  1  0.87922738  0.75130302  0.27683799  1.0
  P  P3079  1  0.87922738  0.89416016  0.27683799  1.0
  P  P3080  1  0.99033849  0.03701731  0.27683799  1.0
  P  P3081  1  0.99033849  0.17987445  0.27683799  1.0
  P  P3082  1  0.99033849  0.32273159  0.27683799  1.0
  P  P3083  1  0.99033849  0.46558874  0.27683799  1.0
  P  P3084  1  0.99033849  0.60844588  0.27683799  1.0
  P  P3085  1  0.99033849  0.75130302  0.27683799  1.0
  P  P3086  1  0.99033849  0.89416016  0.27683799  1.0
  P  P3087  1  0.01150251  0.05062275  0.32445704  1.0
  P  P3088  1  0.01150251  0.19347989  0.32445704  1.0
  P  P3089  1  0.01150251  0.33633704  0.32445704  1.0
  P  P3090  1  0.01150251  0.47919418  0.32445704  1.0
  P  P3091  1  0.01150251  0.62205132  0.32445704  1.0
  P  P3092  1  0.01150251  0.76490846  0.32445704  1.0
  P  P3093  1  0.01150251  0.90776561  0.32445704  1.0
  P  P3094  1  0.12261362  0.05062275  0.32445704  1.0
  P  P3095  1  0.12261362  0.19347989  0.32445704  1.0
  P  P3096  1  0.12261362  0.33633704  0.32445704  1.0
  P  P3097  1  0.12261362  0.47919418  0.32445704  1.0
  P  P3098  1  0.12261362  0.62205132  0.32445704  1.0
  P  P3099  1  0.12261362  0.76490846  0.32445704  1.0
  P  P3100  1  0.12261362  0.90776561  0.32445704  1.0
  P  P3101  1  0.23372473  0.05062275  0.32445704  1.0
  P  P3102  1  0.23372473  0.19347989  0.32445704  1.0
  P  P3103  1  0.23372473  0.33633704  0.32445704  1.0
  P  P3104  1  0.23372473  0.47919418  0.32445704  1.0
  P  P3105  1  0.23372473  0.62205132  0.32445704  1.0
  P  P3106  1  0.23372473  0.76490846  0.32445704  1.0
  P  P3107  1  0.23372473  0.90776561  0.32445704  1.0
  P  P3108  1  0.34483584  0.05062275  0.32445704  1.0
  P  P3109  1  0.34483584  0.19347989  0.32445704  1.0
  P  P3110  1  0.34483584  0.33633704  0.32445704  1.0
  P  P3111  1  0.34483584  0.47919418  0.32445704  1.0
  P  P3112  1  0.34483584  0.62205132  0.32445704  1.0
  P  P3113  1  0.34483584  0.76490846  0.32445704  1.0
  P  P3114  1  0.34483584  0.90776561  0.32445704  1.0
  P  P3115  1  0.45594696  0.05062275  0.32445704  1.0
  P  P3116  1  0.45594696  0.19347989  0.32445704  1.0
  P  P3117  1  0.45594696  0.33633704  0.32445704  1.0
  P  P3118  1  0.45594696  0.47919418  0.32445704  1.0
  P  P3119  1  0.45594696  0.62205132  0.32445704  1.0
  P  P3120  1  0.45594696  0.76490846  0.32445704  1.0
  P  P3121  1  0.45594696  0.90776561  0.32445704  1.0
  P  P3122  1  0.56705807  0.05062275  0.32445704  1.0
  P  P3123  1  0.56705807  0.19347989  0.32445704  1.0
  P  P3124  1  0.56705807  0.33633704  0.32445704  1.0
  P  P3125  1  0.56705807  0.47919418  0.32445704  1.0
  P  P3126  1  0.56705807  0.62205132  0.32445704  1.0
  P  P3127  1  0.56705807  0.76490846  0.32445704  1.0
  P  P3128  1  0.56705807  0.90776561  0.32445704  1.0
  P  P3129  1  0.67816918  0.05062275  0.32445704  1.0
  P  P3130  1  0.67816918  0.19347989  0.32445704  1.0
  P  P3131  1  0.67816918  0.33633704  0.32445704  1.0
  P  P3132  1  0.67816918  0.47919418  0.32445704  1.0
  P  P3133  1  0.67816918  0.62205132  0.32445704  1.0
  P  P3134  1  0.67816918  0.76490846  0.32445704  1.0
  P  P3135  1  0.67816918  0.90776561  0.32445704  1.0
  P  P3136  1  0.78928029  0.05062275  0.32445704  1.0
  P  P3137  1  0.78928029  0.19347989  0.32445704  1.0
  P  P3138  1  0.78928029  0.33633704  0.32445704  1.0
  P  P3139  1  0.78928029  0.47919418  0.32445704  1.0
  P  P3140  1  0.78928029  0.62205132  0.32445704  1.0
  P  P3141  1  0.78928029  0.76490846  0.32445704  1.0
  P  P3142  1  0.78928029  0.90776561  0.32445704  1.0
  P  P3143  1  0.90039140  0.05062275  0.32445704  1.0
  P  P3144  1  0.90039140  0.19347989  0.32445704  1.0
  P  P3145  1  0.90039140  0.33633704  0.32445704  1.0
  P  P3146  1  0.90039140  0.47919418  0.32445704  1.0
  P  P3147  1  0.90039140  0.62205132  0.32445704  1.0
  P  P3148  1  0.90039140  0.76490846  0.32445704  1.0
  P  P3149  1  0.90039140  0.90776561  0.32445704  1.0
  P  P3150  1  0.08028558  0.02341187  0.22921894  1.0
  P  P3151  1  0.08028558  0.16626901  0.22921894  1.0
  P  P3152  1  0.08028558  0.30912615  0.22921894  1.0
  P  P3153  1  0.08028558  0.45198329  0.22921894  1.0
  P  P3154  1  0.08028558  0.59484044  0.22921894  1.0
  P  P3155  1  0.08028558  0.73769758  0.22921894  1.0
  P  P3156  1  0.08028558  0.88055472  0.22921894  1.0
  P  P3157  1  0.19139669  0.02341187  0.22921894  1.0
  P  P3158  1  0.19139669  0.16626901  0.22921894  1.0
  P  P3159  1  0.19139669  0.30912615  0.22921894  1.0
  P  P3160  1  0.19139669  0.45198329  0.22921894  1.0
  P  P3161  1  0.19139669  0.59484044  0.22921894  1.0
  P  P3162  1  0.19139669  0.73769758  0.22921894  1.0
  P  P3163  1  0.19139669  0.88055472  0.22921894  1.0
  P  P3164  1  0.30250780  0.02341187  0.22921894  1.0
  P  P3165  1  0.30250780  0.16626901  0.22921894  1.0
  P  P3166  1  0.30250780  0.30912615  0.22921894  1.0
  P  P3167  1  0.30250780  0.45198329  0.22921894  1.0
  P  P3168  1  0.30250780  0.59484044  0.22921894  1.0
  P  P3169  1  0.30250780  0.73769758  0.22921894  1.0
  P  P3170  1  0.30250780  0.88055472  0.22921894  1.0
  P  P3171  1  0.41361891  0.02341187  0.22921894  1.0
  P  P3172  1  0.41361891  0.16626901  0.22921894  1.0
  P  P3173  1  0.41361891  0.30912615  0.22921894  1.0
  P  P3174  1  0.41361891  0.45198329  0.22921894  1.0
  P  P3175  1  0.41361891  0.59484044  0.22921894  1.0
  P  P3176  1  0.41361891  0.73769758  0.22921894  1.0
  P  P3177  1  0.41361891  0.88055472  0.22921894  1.0
  P  P3178  1  0.52473002  0.02341187  0.22921894  1.0
  P  P3179  1  0.52473002  0.16626901  0.22921894  1.0
  P  P3180  1  0.52473002  0.30912615  0.22921894  1.0
  P  P3181  1  0.52473002  0.45198329  0.22921894  1.0
  P  P3182  1  0.52473002  0.59484044  0.22921894  1.0
  P  P3183  1  0.52473002  0.73769758  0.22921894  1.0
  P  P3184  1  0.52473002  0.88055472  0.22921894  1.0
  P  P3185  1  0.63584113  0.02341187  0.22921894  1.0
  P  P3186  1  0.63584113  0.16626901  0.22921894  1.0
  P  P3187  1  0.63584113  0.30912615  0.22921894  1.0
  P  P3188  1  0.63584113  0.45198329  0.22921894  1.0
  P  P3189  1  0.63584113  0.59484044  0.22921894  1.0
  P  P3190  1  0.63584113  0.73769758  0.22921894  1.0
  P  P3191  1  0.63584113  0.88055472  0.22921894  1.0
  P  P3192  1  0.74695225  0.02341187  0.22921894  1.0
  P  P3193  1  0.74695225  0.16626901  0.22921894  1.0
  P  P3194  1  0.74695225  0.30912615  0.22921894  1.0
  P  P3195  1  0.74695225  0.45198329  0.22921894  1.0
  P  P3196  1  0.74695225  0.59484044  0.22921894  1.0
  P  P3197  1  0.74695225  0.73769758  0.22921894  1.0
  P  P3198  1  0.74695225  0.88055472  0.22921894  1.0
  P  P3199  1  0.85806336  0.02341187  0.22921894  1.0
  P  P3200  1  0.85806336  0.16626901  0.22921894  1.0
  P  P3201  1  0.85806336  0.30912615  0.22921894  1.0
  P  P3202  1  0.85806336  0.45198329  0.22921894  1.0
  P  P3203  1  0.85806336  0.59484044  0.22921894  1.0
  P  P3204  1  0.85806336  0.73769758  0.22921894  1.0
  P  P3205  1  0.85806336  0.88055472  0.22921894  1.0
  P  P3206  1  0.96917447  0.02341187  0.22921894  1.0
  P  P3207  1  0.96917447  0.16626901  0.22921894  1.0
  P  P3208  1  0.96917447  0.30912615  0.22921894  1.0
  P  P3209  1  0.96917447  0.45198329  0.22921894  1.0
  P  P3210  1  0.96917447  0.59484044  0.22921894  1.0
  P  P3211  1  0.96917447  0.73769758  0.22921894  1.0
  P  P3212  1  0.96917447  0.88055472  0.22921894  1.0
  P  P3213  1  0.08085541  0.14005459  0.27444378  1.0
  P  P3214  1  0.08085541  0.28291173  0.27444378  1.0
  P  P3215  1  0.08085541  0.42576888  0.27444378  1.0
  P  P3216  1  0.08085541  0.56862602  0.27444378  1.0
  P  P3217  1  0.08085541  0.71148316  0.27444378  1.0
  P  P3218  1  0.08085541  0.85434031  0.27444378  1.0
  P  P3219  1  0.08085541  0.99719745  0.27444378  1.0
  P  P3220  1  0.19196652  0.14005459  0.27444378  1.0
  P  P3221  1  0.19196652  0.28291173  0.27444378  1.0
  P  P3222  1  0.19196652  0.42576888  0.27444378  1.0
  P  P3223  1  0.19196652  0.56862602  0.27444378  1.0
  P  P3224  1  0.19196652  0.71148316  0.27444378  1.0
  P  P3225  1  0.19196652  0.85434031  0.27444378  1.0
  P  P3226  1  0.19196652  0.99719745  0.27444378  1.0
  P  P3227  1  0.30307763  0.14005459  0.27444378  1.0
  P  P3228  1  0.30307763  0.28291173  0.27444378  1.0
  P  P3229  1  0.30307763  0.42576888  0.27444378  1.0
  P  P3230  1  0.30307763  0.56862602  0.27444378  1.0
  P  P3231  1  0.30307763  0.71148316  0.27444378  1.0
  P  P3232  1  0.30307763  0.85434031  0.27444378  1.0
  P  P3233  1  0.30307763  0.99719745  0.27444378  1.0
  P  P3234  1  0.41418874  0.14005459  0.27444378  1.0
  P  P3235  1  0.41418874  0.28291173  0.27444378  1.0
  P  P3236  1  0.41418874  0.42576888  0.27444378  1.0
  P  P3237  1  0.41418874  0.56862602  0.27444378  1.0
  P  P3238  1  0.41418874  0.71148316  0.27444378  1.0
  P  P3239  1  0.41418874  0.85434031  0.27444378  1.0
  P  P3240  1  0.41418874  0.99719745  0.27444378  1.0
  P  P3241  1  0.52529985  0.14005459  0.27444378  1.0
  P  P3242  1  0.52529985  0.28291173  0.27444378  1.0
  P  P3243  1  0.52529985  0.42576888  0.27444378  1.0
  P  P3244  1  0.52529985  0.56862602  0.27444378  1.0
  P  P3245  1  0.52529985  0.71148316  0.27444378  1.0
  P  P3246  1  0.52529985  0.85434031  0.27444378  1.0
  P  P3247  1  0.52529985  0.99719745  0.27444378  1.0
  P  P3248  1  0.63641096  0.14005459  0.27444378  1.0
  P  P3249  1  0.63641096  0.28291173  0.27444378  1.0
  P  P3250  1  0.63641096  0.42576888  0.27444378  1.0
  P  P3251  1  0.63641096  0.56862602  0.27444378  1.0
  P  P3252  1  0.63641096  0.71148316  0.27444378  1.0
  P  P3253  1  0.63641096  0.85434031  0.27444378  1.0
  P  P3254  1  0.63641096  0.99719745  0.27444378  1.0
  P  P3255  1  0.74752207  0.14005459  0.27444378  1.0
  P  P3256  1  0.74752207  0.28291173  0.27444378  1.0
  P  P3257  1  0.74752207  0.42576888  0.27444378  1.0
  P  P3258  1  0.74752207  0.56862602  0.27444378  1.0
  P  P3259  1  0.74752207  0.71148316  0.27444378  1.0
  P  P3260  1  0.74752207  0.85434031  0.27444378  1.0
  P  P3261  1  0.74752207  0.99719745  0.27444378  1.0
  P  P3262  1  0.85863318  0.14005459  0.27444378  1.0
  P  P3263  1  0.85863318  0.28291173  0.27444378  1.0
  P  P3264  1  0.85863318  0.42576888  0.27444378  1.0
  P  P3265  1  0.85863318  0.56862602  0.27444378  1.0
  P  P3266  1  0.85863318  0.71148316  0.27444378  1.0
  P  P3267  1  0.85863318  0.85434031  0.27444378  1.0
  P  P3268  1  0.85863318  0.99719745  0.27444378  1.0
  P  P3269  1  0.96974430  0.14005459  0.27444378  1.0
  P  P3270  1  0.96974430  0.28291173  0.27444378  1.0
  P  P3271  1  0.96974430  0.42576888  0.27444378  1.0
  P  P3272  1  0.96974430  0.56862602  0.27444378  1.0
  P  P3273  1  0.96974430  0.71148316  0.27444378  1.0
  P  P3274  1  0.96974430  0.85434031  0.27444378  1.0
  P  P3275  1  0.96974430  0.99719745  0.27444378  1.0
  P  P3276  1  0.10201943  0.01080289  0.32206282  1.0
  P  P3277  1  0.10201943  0.15366003  0.32206282  1.0
  P  P3278  1  0.10201943  0.29651718  0.32206282  1.0
  P  P3279  1  0.10201943  0.43937432  0.32206282  1.0
  P  P3280  1  0.10201943  0.58223146  0.32206282  1.0
  P  P3281  1  0.10201943  0.72508860  0.32206282  1.0
  P  P3282  1  0.10201943  0.86794575  0.32206282  1.0
  P  P3283  1  0.21313054  0.01080289  0.32206282  1.0
  P  P3284  1  0.21313054  0.15366003  0.32206282  1.0
  P  P3285  1  0.21313054  0.29651718  0.32206282  1.0
  P  P3286  1  0.21313054  0.43937432  0.32206282  1.0
  P  P3287  1  0.21313054  0.58223146  0.32206282  1.0
  P  P3288  1  0.21313054  0.72508860  0.32206282  1.0
  P  P3289  1  0.21313054  0.86794575  0.32206282  1.0
  P  P3290  1  0.32424165  0.01080289  0.32206282  1.0
  P  P3291  1  0.32424165  0.15366003  0.32206282  1.0
  P  P3292  1  0.32424165  0.29651718  0.32206282  1.0
  P  P3293  1  0.32424165  0.43937432  0.32206282  1.0
  P  P3294  1  0.32424165  0.58223146  0.32206282  1.0
  P  P3295  1  0.32424165  0.72508860  0.32206282  1.0
  P  P3296  1  0.32424165  0.86794575  0.32206282  1.0
  P  P3297  1  0.43535276  0.01080289  0.32206282  1.0
  P  P3298  1  0.43535276  0.15366003  0.32206282  1.0
  P  P3299  1  0.43535276  0.29651718  0.32206282  1.0
  P  P3300  1  0.43535276  0.43937432  0.32206282  1.0
  P  P3301  1  0.43535276  0.58223146  0.32206282  1.0
  P  P3302  1  0.43535276  0.72508860  0.32206282  1.0
  P  P3303  1  0.43535276  0.86794575  0.32206282  1.0
  P  P3304  1  0.54646387  0.01080289  0.32206282  1.0
  P  P3305  1  0.54646387  0.15366003  0.32206282  1.0
  P  P3306  1  0.54646387  0.29651718  0.32206282  1.0
  P  P3307  1  0.54646387  0.43937432  0.32206282  1.0
  P  P3308  1  0.54646387  0.58223146  0.32206282  1.0
  P  P3309  1  0.54646387  0.72508860  0.32206282  1.0
  P  P3310  1  0.54646387  0.86794575  0.32206282  1.0
  P  P3311  1  0.65757498  0.01080289  0.32206282  1.0
  P  P3312  1  0.65757498  0.15366003  0.32206282  1.0
  P  P3313  1  0.65757498  0.29651718  0.32206282  1.0
  P  P3314  1  0.65757498  0.43937432  0.32206282  1.0
  P  P3315  1  0.65757498  0.58223146  0.32206282  1.0
  P  P3316  1  0.65757498  0.72508860  0.32206282  1.0
  P  P3317  1  0.65757498  0.86794575  0.32206282  1.0
  P  P3318  1  0.76868609  0.01080289  0.32206282  1.0
  P  P3319  1  0.76868609  0.15366003  0.32206282  1.0
  P  P3320  1  0.76868609  0.29651718  0.32206282  1.0
  P  P3321  1  0.76868609  0.43937432  0.32206282  1.0
  P  P3322  1  0.76868609  0.58223146  0.32206282  1.0
  P  P3323  1  0.76868609  0.72508860  0.32206282  1.0
  P  P3324  1  0.76868609  0.86794575  0.32206282  1.0
  P  P3325  1  0.87979721  0.01080289  0.32206282  1.0
  P  P3326  1  0.87979721  0.15366003  0.32206282  1.0
  P  P3327  1  0.87979721  0.29651718  0.32206282  1.0
  P  P3328  1  0.87979721  0.43937432  0.32206282  1.0
  P  P3329  1  0.87979721  0.58223146  0.32206282  1.0
  P  P3330  1  0.87979721  0.72508860  0.32206282  1.0
  P  P3331  1  0.87979721  0.86794575  0.32206282  1.0
  P  P3332  1  0.99090832  0.01080289  0.32206282  1.0
  P  P3333  1  0.99090832  0.15366003  0.32206282  1.0
  P  P3334  1  0.99090832  0.29651718  0.32206282  1.0
  P  P3335  1  0.99090832  0.43937432  0.32206282  1.0
  P  P3336  1  0.99090832  0.58223146  0.32206282  1.0
  P  P3337  1  0.99090832  0.72508860  0.32206282  1.0
  P  P3338  1  0.99090832  0.86794575  0.32206282  1.0
  P  P3339  1  0.05969139  0.12644915  0.22682473  1.0
  P  P3340  1  0.05969139  0.26930629  0.22682473  1.0
  P  P3341  1  0.05969139  0.41216343  0.22682473  1.0
  P  P3342  1  0.05969139  0.55502058  0.22682473  1.0
  P  P3343  1  0.05969139  0.69787772  0.22682473  1.0
  P  P3344  1  0.05969139  0.84073486  0.22682473  1.0
  P  P3345  1  0.05969139  0.98359201  0.22682473  1.0
  P  P3346  1  0.17080250  0.12644915  0.22682473  1.0
  P  P3347  1  0.17080250  0.26930629  0.22682473  1.0
  P  P3348  1  0.17080250  0.41216343  0.22682473  1.0
  P  P3349  1  0.17080250  0.55502058  0.22682473  1.0
  P  P3350  1  0.17080250  0.69787772  0.22682473  1.0
  P  P3351  1  0.17080250  0.84073486  0.22682473  1.0
  P  P3352  1  0.17080250  0.98359201  0.22682473  1.0
  P  P3353  1  0.28191361  0.12644915  0.22682473  1.0
  P  P3354  1  0.28191361  0.26930629  0.22682473  1.0
  P  P3355  1  0.28191361  0.41216343  0.22682473  1.0
  P  P3356  1  0.28191361  0.55502058  0.22682473  1.0
  P  P3357  1  0.28191361  0.69787772  0.22682473  1.0
  P  P3358  1  0.28191361  0.84073486  0.22682473  1.0
  P  P3359  1  0.28191361  0.98359201  0.22682473  1.0
  P  P3360  1  0.39302472  0.12644915  0.22682473  1.0
  P  P3361  1  0.39302472  0.26930629  0.22682473  1.0
  P  P3362  1  0.39302472  0.41216343  0.22682473  1.0
  P  P3363  1  0.39302472  0.55502058  0.22682473  1.0
  P  P3364  1  0.39302472  0.69787772  0.22682473  1.0
  P  P3365  1  0.39302472  0.84073486  0.22682473  1.0
  P  P3366  1  0.39302472  0.98359201  0.22682473  1.0
  P  P3367  1  0.50413583  0.12644915  0.22682473  1.0
  P  P3368  1  0.50413583  0.26930629  0.22682473  1.0
  P  P3369  1  0.50413583  0.41216343  0.22682473  1.0
  P  P3370  1  0.50413583  0.55502058  0.22682473  1.0
  P  P3371  1  0.50413583  0.69787772  0.22682473  1.0
  P  P3372  1  0.50413583  0.84073486  0.22682473  1.0
  P  P3373  1  0.50413583  0.98359201  0.22682473  1.0
  P  P3374  1  0.61524694  0.12644915  0.22682473  1.0
  P  P3375  1  0.61524694  0.26930629  0.22682473  1.0
  P  P3376  1  0.61524694  0.41216343  0.22682473  1.0
  P  P3377  1  0.61524694  0.55502058  0.22682473  1.0
  P  P3378  1  0.61524694  0.69787772  0.22682473  1.0
  P  P3379  1  0.61524694  0.84073486  0.22682473  1.0
  P  P3380  1  0.61524694  0.98359201  0.22682473  1.0
  P  P3381  1  0.72635805  0.12644915  0.22682473  1.0
  P  P3382  1  0.72635805  0.26930629  0.22682473  1.0
  P  P3383  1  0.72635805  0.41216343  0.22682473  1.0
  P  P3384  1  0.72635805  0.55502058  0.22682473  1.0
  P  P3385  1  0.72635805  0.69787772  0.22682473  1.0
  P  P3386  1  0.72635805  0.84073486  0.22682473  1.0
  P  P3387  1  0.72635805  0.98359201  0.22682473  1.0
  P  P3388  1  0.83746916  0.12644915  0.22682473  1.0
  P  P3389  1  0.83746916  0.26930629  0.22682473  1.0
  P  P3390  1  0.83746916  0.41216343  0.22682473  1.0
  P  P3391  1  0.83746916  0.55502058  0.22682473  1.0
  P  P3392  1  0.83746916  0.69787772  0.22682473  1.0
  P  P3393  1  0.83746916  0.84073486  0.22682473  1.0
  P  P3394  1  0.83746916  0.98359201  0.22682473  1.0
  P  P3395  1  0.94858027  0.12644915  0.22682473  1.0
  P  P3396  1  0.94858027  0.26930629  0.22682473  1.0
  P  P3397  1  0.94858027  0.41216343  0.22682473  1.0
  P  P3398  1  0.94858027  0.55502058  0.22682473  1.0
  P  P3399  1  0.94858027  0.69787772  0.22682473  1.0
  P  P3400  1  0.94858027  0.84073486  0.22682473  1.0
  P  P3401  1  0.94858027  0.98359201  0.22682473  1.0
  P  P3402  1  0.05169194  0.07303730  0.28988326  1.0
  P  P3403  1  0.05169194  0.21589444  0.28988326  1.0
  P  P3404  1  0.05169194  0.35875159  0.28988326  1.0
  P  P3405  1  0.05169194  0.50160873  0.28988326  1.0
  P  P3406  1  0.05169194  0.64446587  0.28988326  1.0
  P  P3407  1  0.05169194  0.78732301  0.28988326  1.0
  P  P3408  1  0.05169194  0.93018016  0.28988326  1.0
  P  P3409  1  0.16280305  0.07303730  0.28988326  1.0
  P  P3410  1  0.16280305  0.21589444  0.28988326  1.0
  P  P3411  1  0.16280305  0.35875159  0.28988326  1.0
  P  P3412  1  0.16280305  0.50160873  0.28988326  1.0
  P  P3413  1  0.16280305  0.64446587  0.28988326  1.0
  P  P3414  1  0.16280305  0.78732301  0.28988326  1.0
  P  P3415  1  0.16280305  0.93018016  0.28988326  1.0
  P  P3416  1  0.27391416  0.07303730  0.28988326  1.0
  P  P3417  1  0.27391416  0.21589444  0.28988326  1.0
  P  P3418  1  0.27391416  0.35875159  0.28988326  1.0
  P  P3419  1  0.27391416  0.50160873  0.28988326  1.0
  P  P3420  1  0.27391416  0.64446587  0.28988326  1.0
  P  P3421  1  0.27391416  0.78732301  0.28988326  1.0
  P  P3422  1  0.27391416  0.93018016  0.28988326  1.0
  P  P3423  1  0.38502527  0.07303730  0.28988326  1.0
  P  P3424  1  0.38502527  0.21589444  0.28988326  1.0
  P  P3425  1  0.38502527  0.35875159  0.28988326  1.0
  P  P3426  1  0.38502527  0.50160873  0.28988326  1.0
  P  P3427  1  0.38502527  0.64446587  0.28988326  1.0
  P  P3428  1  0.38502527  0.78732301  0.28988326  1.0
  P  P3429  1  0.38502527  0.93018016  0.28988326  1.0
  P  P3430  1  0.49613639  0.07303730  0.28988326  1.0
  P  P3431  1  0.49613639  0.21589444  0.28988326  1.0
  P  P3432  1  0.49613639  0.35875159  0.28988326  1.0
  P  P3433  1  0.49613639  0.50160873  0.28988326  1.0
  P  P3434  1  0.49613639  0.64446587  0.28988326  1.0
  P  P3435  1  0.49613639  0.78732301  0.28988326  1.0
  P  P3436  1  0.49613639  0.93018016  0.28988326  1.0
  P  P3437  1  0.60724750  0.07303730  0.28988326  1.0
  P  P3438  1  0.60724750  0.21589444  0.28988326  1.0
  P  P3439  1  0.60724750  0.35875159  0.28988326  1.0
  P  P3440  1  0.60724750  0.50160873  0.28988326  1.0
  P  P3441  1  0.60724750  0.64446587  0.28988326  1.0
  P  P3442  1  0.60724750  0.78732301  0.28988326  1.0
  P  P3443  1  0.60724750  0.93018016  0.28988326  1.0
  P  P3444  1  0.71835861  0.07303730  0.28988326  1.0
  P  P3445  1  0.71835861  0.21589444  0.28988326  1.0
  P  P3446  1  0.71835861  0.35875159  0.28988326  1.0
  P  P3447  1  0.71835861  0.50160873  0.28988326  1.0
  P  P3448  1  0.71835861  0.64446587  0.28988326  1.0
  P  P3449  1  0.71835861  0.78732301  0.28988326  1.0
  P  P3450  1  0.71835861  0.93018016  0.28988326  1.0
  P  P3451  1  0.82946972  0.07303730  0.28988326  1.0
  P  P3452  1  0.82946972  0.21589444  0.28988326  1.0
  P  P3453  1  0.82946972  0.35875159  0.28988326  1.0
  P  P3454  1  0.82946972  0.50160873  0.28988326  1.0
  P  P3455  1  0.82946972  0.64446587  0.28988326  1.0
  P  P3456  1  0.82946972  0.78732301  0.28988326  1.0
  P  P3457  1  0.82946972  0.93018016  0.28988326  1.0
  P  P3458  1  0.94058083  0.07303730  0.28988326  1.0
  P  P3459  1  0.94058083  0.21589444  0.28988326  1.0
  P  P3460  1  0.94058083  0.35875159  0.28988326  1.0
  P  P3461  1  0.94058083  0.50160873  0.28988326  1.0
  P  P3462  1  0.94058083  0.64446587  0.28988326  1.0
  P  P3463  1  0.94058083  0.78732301  0.28988326  1.0
  P  P3464  1  0.94058083  0.93018016  0.28988326  1.0
  P  P3465  1  0.07285596  0.08664274  0.33750231  1.0
  P  P3466  1  0.07285596  0.22949989  0.33750231  1.0
  P  P3467  1  0.07285596  0.37235703  0.33750231  1.0
  P  P3468  1  0.07285596  0.51521417  0.33750231  1.0
  P  P3469  1  0.07285596  0.65807131  0.33750231  1.0
  P  P3470  1  0.07285596  0.80092846  0.33750231  1.0
  P  P3471  1  0.07285596  0.94378560  0.33750231  1.0
  P  P3472  1  0.18396707  0.08664274  0.33750231  1.0
  P  P3473  1  0.18396707  0.22949989  0.33750231  1.0
  P  P3474  1  0.18396707  0.37235703  0.33750231  1.0
  P  P3475  1  0.18396707  0.51521417  0.33750231  1.0
  P  P3476  1  0.18396707  0.65807131  0.33750231  1.0
  P  P3477  1  0.18396707  0.80092846  0.33750231  1.0
  P  P3478  1  0.18396707  0.94378560  0.33750231  1.0
  P  P3479  1  0.29507818  0.08664274  0.33750231  1.0
  P  P3480  1  0.29507818  0.22949989  0.33750231  1.0
  P  P3481  1  0.29507818  0.37235703  0.33750231  1.0
  P  P3482  1  0.29507818  0.51521417  0.33750231  1.0
  P  P3483  1  0.29507818  0.65807131  0.33750231  1.0
  P  P3484  1  0.29507818  0.80092846  0.33750231  1.0
  P  P3485  1  0.29507818  0.94378560  0.33750231  1.0
  P  P3486  1  0.40618930  0.08664274  0.33750231  1.0
  P  P3487  1  0.40618930  0.22949989  0.33750231  1.0
  P  P3488  1  0.40618930  0.37235703  0.33750231  1.0
  P  P3489  1  0.40618930  0.51521417  0.33750231  1.0
  P  P3490  1  0.40618930  0.65807131  0.33750231  1.0
  P  P3491  1  0.40618930  0.80092846  0.33750231  1.0
  P  P3492  1  0.40618930  0.94378560  0.33750231  1.0
  P  P3493  1  0.51730041  0.08664274  0.33750231  1.0
  P  P3494  1  0.51730041  0.22949989  0.33750231  1.0
  P  P3495  1  0.51730041  0.37235703  0.33750231  1.0
  P  P3496  1  0.51730041  0.51521417  0.33750231  1.0
  P  P3497  1  0.51730041  0.65807131  0.33750231  1.0
  P  P3498  1  0.51730041  0.80092846  0.33750231  1.0
  P  P3499  1  0.51730041  0.94378560  0.33750231  1.0
  P  P3500  1  0.62841152  0.08664274  0.33750231  1.0
  P  P3501  1  0.62841152  0.22949989  0.33750231  1.0
  P  P3502  1  0.62841152  0.37235703  0.33750231  1.0
  P  P3503  1  0.62841152  0.51521417  0.33750231  1.0
  P  P3504  1  0.62841152  0.65807131  0.33750231  1.0
  P  P3505  1  0.62841152  0.80092846  0.33750231  1.0
  P  P3506  1  0.62841152  0.94378560  0.33750231  1.0
  P  P3507  1  0.73952263  0.08664274  0.33750231  1.0
  P  P3508  1  0.73952263  0.22949989  0.33750231  1.0
  P  P3509  1  0.73952263  0.37235703  0.33750231  1.0
  P  P3510  1  0.73952263  0.51521417  0.33750231  1.0
  P  P3511  1  0.73952263  0.65807131  0.33750231  1.0
  P  P3512  1  0.73952263  0.80092846  0.33750231  1.0
  P  P3513  1  0.73952263  0.94378560  0.33750231  1.0
  P  P3514  1  0.85063374  0.08664274  0.33750231  1.0
  P  P3515  1  0.85063374  0.22949989  0.33750231  1.0
  P  P3516  1  0.85063374  0.37235703  0.33750231  1.0
  P  P3517  1  0.85063374  0.51521417  0.33750231  1.0
  P  P3518  1  0.85063374  0.65807131  0.33750231  1.0
  P  P3519  1  0.85063374  0.80092846  0.33750231  1.0
  P  P3520  1  0.85063374  0.94378560  0.33750231  1.0
  P  P3521  1  0.96174485  0.08664274  0.33750231  1.0
  P  P3522  1  0.96174485  0.22949989  0.33750231  1.0
  P  P3523  1  0.96174485  0.37235703  0.33750231  1.0
  P  P3524  1  0.96174485  0.51521417  0.33750231  1.0
  P  P3525  1  0.96174485  0.65807131  0.33750231  1.0
  P  P3526  1  0.96174485  0.80092846  0.33750231  1.0
  P  P3527  1  0.96174485  0.94378560  0.33750231  1.0
  P  P3528  1  0.03052792  0.05943186  0.24226421  1.0
  P  P3529  1  0.03052792  0.20228900  0.24226421  1.0
  P  P3530  1  0.03052792  0.34514614  0.24226421  1.0
  P  P3531  1  0.03052792  0.48800329  0.24226421  1.0
  P  P3532  1  0.03052792  0.63086043  0.24226421  1.0
  P  P3533  1  0.03052792  0.77371757  0.24226421  1.0
  P  P3534  1  0.03052792  0.91657472  0.24226421  1.0
  P  P3535  1  0.14163903  0.05943186  0.24226421  1.0
  P  P3536  1  0.14163903  0.20228900  0.24226421  1.0
  P  P3537  1  0.14163903  0.34514614  0.24226421  1.0
  P  P3538  1  0.14163903  0.48800329  0.24226421  1.0
  P  P3539  1  0.14163903  0.63086043  0.24226421  1.0
  P  P3540  1  0.14163903  0.77371757  0.24226421  1.0
  P  P3541  1  0.14163903  0.91657472  0.24226421  1.0
  P  P3542  1  0.25275014  0.05943186  0.24226421  1.0
  P  P3543  1  0.25275014  0.20228900  0.24226421  1.0
  P  P3544  1  0.25275014  0.34514614  0.24226421  1.0
  P  P3545  1  0.25275014  0.48800329  0.24226421  1.0
  P  P3546  1  0.25275014  0.63086043  0.24226421  1.0
  P  P3547  1  0.25275014  0.77371757  0.24226421  1.0
  P  P3548  1  0.25275014  0.91657472  0.24226421  1.0
  P  P3549  1  0.36386125  0.05943186  0.24226421  1.0
  P  P3550  1  0.36386125  0.20228900  0.24226421  1.0
  P  P3551  1  0.36386125  0.34514614  0.24226421  1.0
  P  P3552  1  0.36386125  0.48800329  0.24226421  1.0
  P  P3553  1  0.36386125  0.63086043  0.24226421  1.0
  P  P3554  1  0.36386125  0.77371757  0.24226421  1.0
  P  P3555  1  0.36386125  0.91657472  0.24226421  1.0
  P  P3556  1  0.47497236  0.05943186  0.24226421  1.0
  P  P3557  1  0.47497236  0.20228900  0.24226421  1.0
  P  P3558  1  0.47497236  0.34514614  0.24226421  1.0
  P  P3559  1  0.47497236  0.48800329  0.24226421  1.0
  P  P3560  1  0.47497236  0.63086043  0.24226421  1.0
  P  P3561  1  0.47497236  0.77371757  0.24226421  1.0
  P  P3562  1  0.47497236  0.91657472  0.24226421  1.0
  P  P3563  1  0.58608348  0.05943186  0.24226421  1.0
  P  P3564  1  0.58608348  0.20228900  0.24226421  1.0
  P  P3565  1  0.58608348  0.34514614  0.24226421  1.0
  P  P3566  1  0.58608348  0.48800329  0.24226421  1.0
  P  P3567  1  0.58608348  0.63086043  0.24226421  1.0
  P  P3568  1  0.58608348  0.77371757  0.24226421  1.0
  P  P3569  1  0.58608348  0.91657472  0.24226421  1.0
  P  P3570  1  0.69719459  0.05943186  0.24226421  1.0
  P  P3571  1  0.69719459  0.20228900  0.24226421  1.0
  P  P3572  1  0.69719459  0.34514614  0.24226421  1.0
  P  P3573  1  0.69719459  0.48800329  0.24226421  1.0
  P  P3574  1  0.69719459  0.63086043  0.24226421  1.0
  P  P3575  1  0.69719459  0.77371757  0.24226421  1.0
  P  P3576  1  0.69719459  0.91657472  0.24226421  1.0
  P  P3577  1  0.80830570  0.05943186  0.24226421  1.0
  P  P3578  1  0.80830570  0.20228900  0.24226421  1.0
  P  P3579  1  0.80830570  0.34514614  0.24226421  1.0
  P  P3580  1  0.80830570  0.48800329  0.24226421  1.0
  P  P3581  1  0.80830570  0.63086043  0.24226421  1.0
  P  P3582  1  0.80830570  0.77371757  0.24226421  1.0
  P  P3583  1  0.80830570  0.91657472  0.24226421  1.0
  P  P3584  1  0.91941681  0.05943186  0.24226421  1.0
  P  P3585  1  0.91941681  0.20228900  0.24226421  1.0
  P  P3586  1  0.91941681  0.34514614  0.24226421  1.0
  P  P3587  1  0.91941681  0.48800329  0.24226421  1.0
  P  P3588  1  0.91941681  0.63086043  0.24226421  1.0
  P  P3589  1  0.91941681  0.77371757  0.24226421  1.0
  P  P3590  1  0.91941681  0.91657472  0.24226421  1.0
  P  P3591  1  0.01950196  0.10403460  0.26139851  1.0
  P  P3592  1  0.01950196  0.24689174  0.26139851  1.0
  P  P3593  1  0.01950196  0.38974888  0.26139851  1.0
  P  P3594  1  0.01950196  0.53260603  0.26139851  1.0
  P  P3595  1  0.01950196  0.67546317  0.26139851  1.0
  P  P3596  1  0.01950196  0.81832031  0.26139851  1.0
  P  P3597  1  0.01950196  0.96117746  0.26139851  1.0
  P  P3598  1  0.13061307  0.10403460  0.26139851  1.0
  P  P3599  1  0.13061307  0.24689174  0.26139851  1.0
  P  P3600  1  0.13061307  0.38974888  0.26139851  1.0
  P  P3601  1  0.13061307  0.53260603  0.26139851  1.0
  P  P3602  1  0.13061307  0.67546317  0.26139851  1.0
  P  P3603  1  0.13061307  0.81832031  0.26139851  1.0
  P  P3604  1  0.13061307  0.96117746  0.26139851  1.0
  P  P3605  1  0.24172418  0.10403460  0.26139851  1.0
  P  P3606  1  0.24172418  0.24689174  0.26139851  1.0
  P  P3607  1  0.24172418  0.38974888  0.26139851  1.0
  P  P3608  1  0.24172418  0.53260603  0.26139851  1.0
  P  P3609  1  0.24172418  0.67546317  0.26139851  1.0
  P  P3610  1  0.24172418  0.81832031  0.26139851  1.0
  P  P3611  1  0.24172418  0.96117746  0.26139851  1.0
  P  P3612  1  0.35283529  0.10403460  0.26139851  1.0
  P  P3613  1  0.35283529  0.24689174  0.26139851  1.0
  P  P3614  1  0.35283529  0.38974888  0.26139851  1.0
  P  P3615  1  0.35283529  0.53260603  0.26139851  1.0
  P  P3616  1  0.35283529  0.67546317  0.26139851  1.0
  P  P3617  1  0.35283529  0.81832031  0.26139851  1.0
  P  P3618  1  0.35283529  0.96117746  0.26139851  1.0
  P  P3619  1  0.46394640  0.10403460  0.26139851  1.0
  P  P3620  1  0.46394640  0.24689174  0.26139851  1.0
  P  P3621  1  0.46394640  0.38974888  0.26139851  1.0
  P  P3622  1  0.46394640  0.53260603  0.26139851  1.0
  P  P3623  1  0.46394640  0.67546317  0.26139851  1.0
  P  P3624  1  0.46394640  0.81832031  0.26139851  1.0
  P  P3625  1  0.46394640  0.96117746  0.26139851  1.0
  P  P3626  1  0.57505751  0.10403460  0.26139851  1.0
  P  P3627  1  0.57505751  0.24689174  0.26139851  1.0
  P  P3628  1  0.57505751  0.38974888  0.26139851  1.0
  P  P3629  1  0.57505751  0.53260603  0.26139851  1.0
  P  P3630  1  0.57505751  0.67546317  0.26139851  1.0
  P  P3631  1  0.57505751  0.81832031  0.26139851  1.0
  P  P3632  1  0.57505751  0.96117746  0.26139851  1.0
  P  P3633  1  0.68616862  0.10403460  0.26139851  1.0
  P  P3634  1  0.68616862  0.24689174  0.26139851  1.0
  P  P3635  1  0.68616862  0.38974888  0.26139851  1.0
  P  P3636  1  0.68616862  0.53260603  0.26139851  1.0
  P  P3637  1  0.68616862  0.67546317  0.26139851  1.0
  P  P3638  1  0.68616862  0.81832031  0.26139851  1.0
  P  P3639  1  0.68616862  0.96117746  0.26139851  1.0
  P  P3640  1  0.79727973  0.10403460  0.26139851  1.0
  P  P3641  1  0.79727973  0.24689174  0.26139851  1.0
  P  P3642  1  0.79727973  0.38974888  0.26139851  1.0
  P  P3643  1  0.79727973  0.53260603  0.26139851  1.0
  P  P3644  1  0.79727973  0.67546317  0.26139851  1.0
  P  P3645  1  0.79727973  0.81832031  0.26139851  1.0
  P  P3646  1  0.79727973  0.96117746  0.26139851  1.0
  P  P3647  1  0.90839084  0.10403460  0.26139851  1.0
  P  P3648  1  0.90839084  0.24689174  0.26139851  1.0
  P  P3649  1  0.90839084  0.38974888  0.26139851  1.0
  P  P3650  1  0.90839084  0.53260603  0.26139851  1.0
  P  P3651  1  0.90839084  0.67546317  0.26139851  1.0
  P  P3652  1  0.90839084  0.81832031  0.26139851  1.0
  P  P3653  1  0.90839084  0.96117746  0.26139851  1.0
  P  P3654  1  0.04066598  0.11764004  0.30901756  1.0
  P  P3655  1  0.04066598  0.26049718  0.30901756  1.0
  P  P3656  1  0.04066598  0.40335433  0.30901756  1.0
  P  P3657  1  0.04066598  0.54621147  0.30901756  1.0
  P  P3658  1  0.04066598  0.68906861  0.30901756  1.0
  P  P3659  1  0.04066598  0.83192575  0.30901756  1.0
  P  P3660  1  0.04066598  0.97478290  0.30901756  1.0
  P  P3661  1  0.15177709  0.11764004  0.30901756  1.0
  P  P3662  1  0.15177709  0.26049718  0.30901756  1.0
  P  P3663  1  0.15177709  0.40335433  0.30901756  1.0
  P  P3664  1  0.15177709  0.54621147  0.30901756  1.0
  P  P3665  1  0.15177709  0.68906861  0.30901756  1.0
  P  P3666  1  0.15177709  0.83192575  0.30901756  1.0
  P  P3667  1  0.15177709  0.97478290  0.30901756  1.0
  P  P3668  1  0.26288820  0.11764004  0.30901756  1.0
  P  P3669  1  0.26288820  0.26049718  0.30901756  1.0
  P  P3670  1  0.26288820  0.40335433  0.30901756  1.0
  P  P3671  1  0.26288820  0.54621147  0.30901756  1.0
  P  P3672  1  0.26288820  0.68906861  0.30901756  1.0
  P  P3673  1  0.26288820  0.83192575  0.30901756  1.0
  P  P3674  1  0.26288820  0.97478290  0.30901756  1.0
  P  P3675  1  0.37399931  0.11764004  0.30901756  1.0
  P  P3676  1  0.37399931  0.26049718  0.30901756  1.0
  P  P3677  1  0.37399931  0.40335433  0.30901756  1.0
  P  P3678  1  0.37399931  0.54621147  0.30901756  1.0
  P  P3679  1  0.37399931  0.68906861  0.30901756  1.0
  P  P3680  1  0.37399931  0.83192575  0.30901756  1.0
  P  P3681  1  0.37399931  0.97478290  0.30901756  1.0
  P  P3682  1  0.48511042  0.11764004  0.30901756  1.0
  P  P3683  1  0.48511042  0.26049718  0.30901756  1.0
  P  P3684  1  0.48511042  0.40335433  0.30901756  1.0
  P  P3685  1  0.48511042  0.54621147  0.30901756  1.0
  P  P3686  1  0.48511042  0.68906861  0.30901756  1.0
  P  P3687  1  0.48511042  0.83192575  0.30901756  1.0
  P  P3688  1  0.48511042  0.97478290  0.30901756  1.0
  P  P3689  1  0.59622153  0.11764004  0.30901756  1.0
  P  P3690  1  0.59622153  0.26049718  0.30901756  1.0
  P  P3691  1  0.59622153  0.40335433  0.30901756  1.0
  P  P3692  1  0.59622153  0.54621147  0.30901756  1.0
  P  P3693  1  0.59622153  0.68906861  0.30901756  1.0
  P  P3694  1  0.59622153  0.83192575  0.30901756  1.0
  P  P3695  1  0.59622153  0.97478290  0.30901756  1.0
  P  P3696  1  0.70733264  0.11764004  0.30901756  1.0
  P  P3697  1  0.70733264  0.26049718  0.30901756  1.0
  P  P3698  1  0.70733264  0.40335433  0.30901756  1.0
  P  P3699  1  0.70733264  0.54621147  0.30901756  1.0
  P  P3700  1  0.70733264  0.68906861  0.30901756  1.0
  P  P3701  1  0.70733264  0.83192575  0.30901756  1.0
  P  P3702  1  0.70733264  0.97478290  0.30901756  1.0
  P  P3703  1  0.81844375  0.11764004  0.30901756  1.0
  P  P3704  1  0.81844375  0.26049718  0.30901756  1.0
  P  P3705  1  0.81844375  0.40335433  0.30901756  1.0
  P  P3706  1  0.81844375  0.54621147  0.30901756  1.0
  P  P3707  1  0.81844375  0.68906861  0.30901756  1.0
  P  P3708  1  0.81844375  0.83192575  0.30901756  1.0
  P  P3709  1  0.81844375  0.97478290  0.30901756  1.0
  P  P3710  1  0.92955487  0.11764004  0.30901756  1.0
  P  P3711  1  0.92955487  0.26049718  0.30901756  1.0
  P  P3712  1  0.92955487  0.40335433  0.30901756  1.0
  P  P3713  1  0.92955487  0.54621147  0.30901756  1.0
  P  P3714  1  0.92955487  0.68906861  0.30901756  1.0
  P  P3715  1  0.92955487  0.83192575  0.30901756  1.0
  P  P3716  1  0.92955487  0.97478290  0.30901756  1.0
  P  P3717  1  0.06183000  0.13124548  0.35663661  1.0
  P  P3718  1  0.06183000  0.27410263  0.35663661  1.0
  P  P3719  1  0.06183000  0.41695977  0.35663661  1.0
  P  P3720  1  0.06183000  0.55981691  0.35663661  1.0
  P  P3721  1  0.06183000  0.70267405  0.35663661  1.0
  P  P3722  1  0.06183000  0.84553120  0.35663661  1.0
  P  P3723  1  0.06183000  0.98838834  0.35663661  1.0
  P  P3724  1  0.17294111  0.13124548  0.35663661  1.0
  P  P3725  1  0.17294111  0.27410263  0.35663661  1.0
  P  P3726  1  0.17294111  0.41695977  0.35663661  1.0
  P  P3727  1  0.17294111  0.55981691  0.35663661  1.0
  P  P3728  1  0.17294111  0.70267405  0.35663661  1.0
  P  P3729  1  0.17294111  0.84553120  0.35663661  1.0
  P  P3730  1  0.17294111  0.98838834  0.35663661  1.0
  P  P3731  1  0.28405222  0.13124548  0.35663661  1.0
  P  P3732  1  0.28405222  0.27410263  0.35663661  1.0
  P  P3733  1  0.28405222  0.41695977  0.35663661  1.0
  P  P3734  1  0.28405222  0.55981691  0.35663661  1.0
  P  P3735  1  0.28405222  0.70267405  0.35663661  1.0
  P  P3736  1  0.28405222  0.84553120  0.35663661  1.0
  P  P3737  1  0.28405222  0.98838834  0.35663661  1.0
  P  P3738  1  0.39516333  0.13124548  0.35663661  1.0
  P  P3739  1  0.39516333  0.27410263  0.35663661  1.0
  P  P3740  1  0.39516333  0.41695977  0.35663661  1.0
  P  P3741  1  0.39516333  0.55981691  0.35663661  1.0
  P  P3742  1  0.39516333  0.70267405  0.35663661  1.0
  P  P3743  1  0.39516333  0.84553120  0.35663661  1.0
  P  P3744  1  0.39516333  0.98838834  0.35663661  1.0
  P  P3745  1  0.50627444  0.13124548  0.35663661  1.0
  P  P3746  1  0.50627444  0.27410263  0.35663661  1.0
  P  P3747  1  0.50627444  0.41695977  0.35663661  1.0
  P  P3748  1  0.50627444  0.55981691  0.35663661  1.0
  P  P3749  1  0.50627444  0.70267405  0.35663661  1.0
  P  P3750  1  0.50627444  0.84553120  0.35663661  1.0
  P  P3751  1  0.50627444  0.98838834  0.35663661  1.0
  P  P3752  1  0.61738555  0.13124548  0.35663661  1.0
  P  P3753  1  0.61738555  0.27410263  0.35663661  1.0
  P  P3754  1  0.61738555  0.41695977  0.35663661  1.0
  P  P3755  1  0.61738555  0.55981691  0.35663661  1.0
  P  P3756  1  0.61738555  0.70267405  0.35663661  1.0
  P  P3757  1  0.61738555  0.84553120  0.35663661  1.0
  P  P3758  1  0.61738555  0.98838834  0.35663661  1.0
  P  P3759  1  0.72849666  0.13124548  0.35663661  1.0
  P  P3760  1  0.72849666  0.27410263  0.35663661  1.0
  P  P3761  1  0.72849666  0.41695977  0.35663661  1.0
  P  P3762  1  0.72849666  0.55981691  0.35663661  1.0
  P  P3763  1  0.72849666  0.70267405  0.35663661  1.0
  P  P3764  1  0.72849666  0.84553120  0.35663661  1.0
  P  P3765  1  0.72849666  0.98838834  0.35663661  1.0
  P  P3766  1  0.83960778  0.13124548  0.35663661  1.0
  P  P3767  1  0.83960778  0.27410263  0.35663661  1.0
  P  P3768  1  0.83960778  0.41695977  0.35663661  1.0
  P  P3769  1  0.83960778  0.55981691  0.35663661  1.0
  P  P3770  1  0.83960778  0.70267405  0.35663661  1.0
  P  P3771  1  0.83960778  0.84553120  0.35663661  1.0
  P  P3772  1  0.83960778  0.98838834  0.35663661  1.0
  P  P3773  1  0.95071889  0.13124548  0.35663661  1.0
  P  P3774  1  0.95071889  0.27410263  0.35663661  1.0
  P  P3775  1  0.95071889  0.41695977  0.35663661  1.0
  P  P3776  1  0.95071889  0.55981691  0.35663661  1.0
  P  P3777  1  0.95071889  0.70267405  0.35663661  1.0
  P  P3778  1  0.95071889  0.84553120  0.35663661  1.0
  P  P3779  1  0.95071889  0.98838834  0.35663661  1.0
  P  P3780  1  0.02923050  0.02726947  0.29138511  1.0
  P  P3781  1  0.02923050  0.17012661  0.29138511  1.0
  P  P3782  1  0.02923050  0.31298375  0.29138511  1.0
  P  P3783  1  0.02923050  0.45584089  0.29138511  1.0
  P  P3784  1  0.02923050  0.59869804  0.29138511  1.0
  P  P3785  1  0.02923050  0.74155518  0.29138511  1.0
  P  P3786  1  0.02923050  0.88441232  0.29138511  1.0
  P  P3787  1  0.14034162  0.02726947  0.29138511  1.0
  P  P3788  1  0.14034162  0.17012661  0.29138511  1.0
  P  P3789  1  0.14034162  0.31298375  0.29138511  1.0
  P  P3790  1  0.14034162  0.45584089  0.29138511  1.0
  P  P3791  1  0.14034162  0.59869804  0.29138511  1.0
  P  P3792  1  0.14034162  0.74155518  0.29138511  1.0
  P  P3793  1  0.14034162  0.88441232  0.29138511  1.0
  P  P3794  1  0.25145273  0.02726947  0.29138511  1.0
  P  P3795  1  0.25145273  0.17012661  0.29138511  1.0
  P  P3796  1  0.25145273  0.31298375  0.29138511  1.0
  P  P3797  1  0.25145273  0.45584089  0.29138511  1.0
  P  P3798  1  0.25145273  0.59869804  0.29138511  1.0
  P  P3799  1  0.25145273  0.74155518  0.29138511  1.0
  P  P3800  1  0.25145273  0.88441232  0.29138511  1.0
  P  P3801  1  0.36256384  0.02726947  0.29138511  1.0
  P  P3802  1  0.36256384  0.17012661  0.29138511  1.0
  P  P3803  1  0.36256384  0.31298375  0.29138511  1.0
  P  P3804  1  0.36256384  0.45584089  0.29138511  1.0
  P  P3805  1  0.36256384  0.59869804  0.29138511  1.0
  P  P3806  1  0.36256384  0.74155518  0.29138511  1.0
  P  P3807  1  0.36256384  0.88441232  0.29138511  1.0
  P  P3808  1  0.47367495  0.02726947  0.29138511  1.0
  P  P3809  1  0.47367495  0.17012661  0.29138511  1.0
  P  P3810  1  0.47367495  0.31298375  0.29138511  1.0
  P  P3811  1  0.47367495  0.45584089  0.29138511  1.0
  P  P3812  1  0.47367495  0.59869804  0.29138511  1.0
  P  P3813  1  0.47367495  0.74155518  0.29138511  1.0
  P  P3814  1  0.47367495  0.88441232  0.29138511  1.0
  P  P3815  1  0.58478606  0.02726947  0.29138511  1.0
  P  P3816  1  0.58478606  0.17012661  0.29138511  1.0
  P  P3817  1  0.58478606  0.31298375  0.29138511  1.0
  P  P3818  1  0.58478606  0.45584089  0.29138511  1.0
  P  P3819  1  0.58478606  0.59869804  0.29138511  1.0
  P  P3820  1  0.58478606  0.74155518  0.29138511  1.0
  P  P3821  1  0.58478606  0.88441232  0.29138511  1.0
  P  P3822  1  0.69589717  0.02726947  0.29138511  1.0
  P  P3823  1  0.69589717  0.17012661  0.29138511  1.0
  P  P3824  1  0.69589717  0.31298375  0.29138511  1.0
  P  P3825  1  0.69589717  0.45584089  0.29138511  1.0
  P  P3826  1  0.69589717  0.59869804  0.29138511  1.0
  P  P3827  1  0.69589717  0.74155518  0.29138511  1.0
  P  P3828  1  0.69589717  0.88441232  0.29138511  1.0
  P  P3829  1  0.80700828  0.02726947  0.29138511  1.0
  P  P3830  1  0.80700828  0.17012661  0.29138511  1.0
  P  P3831  1  0.80700828  0.31298375  0.29138511  1.0
  P  P3832  1  0.80700828  0.45584089  0.29138511  1.0
  P  P3833  1  0.80700828  0.59869804  0.29138511  1.0
  P  P3834  1  0.80700828  0.74155518  0.29138511  1.0
  P  P3835  1  0.80700828  0.88441232  0.29138511  1.0
  P  P3836  1  0.91811939  0.02726947  0.29138511  1.0
  P  P3837  1  0.91811939  0.17012661  0.29138511  1.0
  P  P3838  1  0.91811939  0.31298375  0.29138511  1.0
  P  P3839  1  0.91811939  0.45584089  0.29138511  1.0
  P  P3840  1  0.91811939  0.59869804  0.29138511  1.0
  P  P3841  1  0.91811939  0.74155518  0.29138511  1.0
  P  P3842  1  0.91811939  0.88441232  0.29138511  1.0
  P  P3843  1  0.05039453  0.04087491  0.33900416  1.0
  P  P3844  1  0.05039453  0.18373205  0.33900416  1.0
  P  P3845  1  0.05039453  0.32658919  0.33900416  1.0
  P  P3846  1  0.05039453  0.46944634  0.33900416  1.0
  P  P3847  1  0.05039453  0.61230348  0.33900416  1.0
  P  P3848  1  0.05039453  0.75516062  0.33900416  1.0
  P  P3849  1  0.05039453  0.89801777  0.33900416  1.0
  P  P3850  1  0.16150564  0.04087491  0.33900416  1.0
  P  P3851  1  0.16150564  0.18373205  0.33900416  1.0
  P  P3852  1  0.16150564  0.32658919  0.33900416  1.0
  P  P3853  1  0.16150564  0.46944634  0.33900416  1.0
  P  P3854  1  0.16150564  0.61230348  0.33900416  1.0
  P  P3855  1  0.16150564  0.75516062  0.33900416  1.0
  P  P3856  1  0.16150564  0.89801777  0.33900416  1.0
  P  P3857  1  0.27261675  0.04087491  0.33900416  1.0
  P  P3858  1  0.27261675  0.18373205  0.33900416  1.0
  P  P3859  1  0.27261675  0.32658919  0.33900416  1.0
  P  P3860  1  0.27261675  0.46944634  0.33900416  1.0
  P  P3861  1  0.27261675  0.61230348  0.33900416  1.0
  P  P3862  1  0.27261675  0.75516062  0.33900416  1.0
  P  P3863  1  0.27261675  0.89801777  0.33900416  1.0
  P  P3864  1  0.38372786  0.04087491  0.33900416  1.0
  P  P3865  1  0.38372786  0.18373205  0.33900416  1.0
  P  P3866  1  0.38372786  0.32658919  0.33900416  1.0
  P  P3867  1  0.38372786  0.46944634  0.33900416  1.0
  P  P3868  1  0.38372786  0.61230348  0.33900416  1.0
  P  P3869  1  0.38372786  0.75516062  0.33900416  1.0
  P  P3870  1  0.38372786  0.89801777  0.33900416  1.0
  P  P3871  1  0.49483897  0.04087491  0.33900416  1.0
  P  P3872  1  0.49483897  0.18373205  0.33900416  1.0
  P  P3873  1  0.49483897  0.32658919  0.33900416  1.0
  P  P3874  1  0.49483897  0.46944634  0.33900416  1.0
  P  P3875  1  0.49483897  0.61230348  0.33900416  1.0
  P  P3876  1  0.49483897  0.75516062  0.33900416  1.0
  P  P3877  1  0.49483897  0.89801777  0.33900416  1.0
  P  P3878  1  0.60595008  0.04087491  0.33900416  1.0
  P  P3879  1  0.60595008  0.18373205  0.33900416  1.0
  P  P3880  1  0.60595008  0.32658919  0.33900416  1.0
  P  P3881  1  0.60595008  0.46944634  0.33900416  1.0
  P  P3882  1  0.60595008  0.61230348  0.33900416  1.0
  P  P3883  1  0.60595008  0.75516062  0.33900416  1.0
  P  P3884  1  0.60595008  0.89801777  0.33900416  1.0
  P  P3885  1  0.71706119  0.04087491  0.33900416  1.0
  P  P3886  1  0.71706119  0.18373205  0.33900416  1.0
  P  P3887  1  0.71706119  0.32658919  0.33900416  1.0
  P  P3888  1  0.71706119  0.46944634  0.33900416  1.0
  P  P3889  1  0.71706119  0.61230348  0.33900416  1.0
  P  P3890  1  0.71706119  0.75516062  0.33900416  1.0
  P  P3891  1  0.71706119  0.89801777  0.33900416  1.0
  P  P3892  1  0.82817230  0.04087491  0.33900416  1.0
  P  P3893  1  0.82817230  0.18373205  0.33900416  1.0
  P  P3894  1  0.82817230  0.32658919  0.33900416  1.0
  P  P3895  1  0.82817230  0.46944634  0.33900416  1.0
  P  P3896  1  0.82817230  0.61230348  0.33900416  1.0
  P  P3897  1  0.82817230  0.75516062  0.33900416  1.0
  P  P3898  1  0.82817230  0.89801777  0.33900416  1.0
  P  P3899  1  0.93928341  0.04087491  0.33900416  1.0
  P  P3900  1  0.93928341  0.18373205  0.33900416  1.0
  P  P3901  1  0.93928341  0.32658919  0.33900416  1.0
  P  P3902  1  0.93928341  0.46944634  0.33900416  1.0
  P  P3903  1  0.93928341  0.61230348  0.33900416  1.0
  P  P3904  1  0.93928341  0.75516062  0.33900416  1.0
  P  P3905  1  0.93928341  0.89801777  0.33900416  1.0
  P  P3906  1  0.00806648  0.01366402  0.24376606  1.0
  P  P3907  1  0.00806648  0.15652117  0.24376606  1.0
  P  P3908  1  0.00806648  0.29937831  0.24376606  1.0
  P  P3909  1  0.00806648  0.44223545  0.24376606  1.0
  P  P3910  1  0.00806648  0.58509260  0.24376606  1.0
  P  P3911  1  0.00806648  0.72794974  0.24376606  1.0
  P  P3912  1  0.00806648  0.87080688  0.24376606  1.0
  P  P3913  1  0.11917759  0.01366402  0.24376606  1.0
  P  P3914  1  0.11917759  0.15652117  0.24376606  1.0
  P  P3915  1  0.11917759  0.29937831  0.24376606  1.0
  P  P3916  1  0.11917759  0.44223545  0.24376606  1.0
  P  P3917  1  0.11917759  0.58509260  0.24376606  1.0
  P  P3918  1  0.11917759  0.72794974  0.24376606  1.0
  P  P3919  1  0.11917759  0.87080688  0.24376606  1.0
  P  P3920  1  0.23028871  0.01366402  0.24376606  1.0
  P  P3921  1  0.23028871  0.15652117  0.24376606  1.0
  P  P3922  1  0.23028871  0.29937831  0.24376606  1.0
  P  P3923  1  0.23028871  0.44223545  0.24376606  1.0
  P  P3924  1  0.23028871  0.58509260  0.24376606  1.0
  P  P3925  1  0.23028871  0.72794974  0.24376606  1.0
  P  P3926  1  0.23028871  0.87080688  0.24376606  1.0
  P  P3927  1  0.34139982  0.01366402  0.24376606  1.0
  P  P3928  1  0.34139982  0.15652117  0.24376606  1.0
  P  P3929  1  0.34139982  0.29937831  0.24376606  1.0
  P  P3930  1  0.34139982  0.44223545  0.24376606  1.0
  P  P3931  1  0.34139982  0.58509260  0.24376606  1.0
  P  P3932  1  0.34139982  0.72794974  0.24376606  1.0
  P  P3933  1  0.34139982  0.87080688  0.24376606  1.0
  P  P3934  1  0.45251093  0.01366402  0.24376606  1.0
  P  P3935  1  0.45251093  0.15652117  0.24376606  1.0
  P  P3936  1  0.45251093  0.29937831  0.24376606  1.0
  P  P3937  1  0.45251093  0.44223545  0.24376606  1.0
  P  P3938  1  0.45251093  0.58509260  0.24376606  1.0
  P  P3939  1  0.45251093  0.72794974  0.24376606  1.0
  P  P3940  1  0.45251093  0.87080688  0.24376606  1.0
  P  P3941  1  0.56362204  0.01366402  0.24376606  1.0
  P  P3942  1  0.56362204  0.15652117  0.24376606  1.0
  P  P3943  1  0.56362204  0.29937831  0.24376606  1.0
  P  P3944  1  0.56362204  0.44223545  0.24376606  1.0
  P  P3945  1  0.56362204  0.58509260  0.24376606  1.0
  P  P3946  1  0.56362204  0.72794974  0.24376606  1.0
  P  P3947  1  0.56362204  0.87080688  0.24376606  1.0
  P  P3948  1  0.67473315  0.01366402  0.24376606  1.0
  P  P3949  1  0.67473315  0.15652117  0.24376606  1.0
  P  P3950  1  0.67473315  0.29937831  0.24376606  1.0
  P  P3951  1  0.67473315  0.44223545  0.24376606  1.0
  P  P3952  1  0.67473315  0.58509260  0.24376606  1.0
  P  P3953  1  0.67473315  0.72794974  0.24376606  1.0
  P  P3954  1  0.67473315  0.87080688  0.24376606  1.0
  P  P3955  1  0.78584426  0.01366402  0.24376606  1.0
  P  P3956  1  0.78584426  0.15652117  0.24376606  1.0
  P  P3957  1  0.78584426  0.29937831  0.24376606  1.0
  P  P3958  1  0.78584426  0.44223545  0.24376606  1.0
  P  P3959  1  0.78584426  0.58509260  0.24376606  1.0
  P  P3960  1  0.78584426  0.72794974  0.24376606  1.0
  P  P3961  1  0.78584426  0.87080688  0.24376606  1.0
  P  P3962  1  0.89695537  0.01366402  0.24376606  1.0
  P  P3963  1  0.89695537  0.15652117  0.24376606  1.0
  P  P3964  1  0.89695537  0.29937831  0.24376606  1.0
  P  P3965  1  0.89695537  0.44223545  0.24376606  1.0
  P  P3966  1  0.89695537  0.58509260  0.24376606  1.0
  P  P3967  1  0.89695537  0.72794974  0.24376606  1.0
  P  P3968  1  0.89695537  0.87080688  0.24376606  1.0
  P  P3969  1  0.04196339  0.00694529  0.25989666  1.0
  P  P3970  1  0.04196339  0.14980243  0.25989666  1.0
  P  P3971  1  0.04196339  0.29265958  0.25989666  1.0
  P  P3972  1  0.04196339  0.43551672  0.25989666  1.0
  P  P3973  1  0.04196339  0.57837386  0.25989666  1.0
  P  P3974  1  0.04196339  0.72123100  0.25989666  1.0
  P  P3975  1  0.04196339  0.86408815  0.25989666  1.0
  P  P3976  1  0.15307450  0.00694529  0.25989666  1.0
  P  P3977  1  0.15307450  0.14980243  0.25989666  1.0
  P  P3978  1  0.15307450  0.29265958  0.25989666  1.0
  P  P3979  1  0.15307450  0.43551672  0.25989666  1.0
  P  P3980  1  0.15307450  0.57837386  0.25989666  1.0
  P  P3981  1  0.15307450  0.72123100  0.25989666  1.0
  P  P3982  1  0.15307450  0.86408815  0.25989666  1.0
  P  P3983  1  0.26418561  0.00694529  0.25989666  1.0
  P  P3984  1  0.26418561  0.14980243  0.25989666  1.0
  P  P3985  1  0.26418561  0.29265958  0.25989666  1.0
  P  P3986  1  0.26418561  0.43551672  0.25989666  1.0
  P  P3987  1  0.26418561  0.57837386  0.25989666  1.0
  P  P3988  1  0.26418561  0.72123100  0.25989666  1.0
  P  P3989  1  0.26418561  0.86408815  0.25989666  1.0
  P  P3990  1  0.37529672  0.00694529  0.25989666  1.0
  P  P3991  1  0.37529672  0.14980243  0.25989666  1.0
  P  P3992  1  0.37529672  0.29265958  0.25989666  1.0
  P  P3993  1  0.37529672  0.43551672  0.25989666  1.0
  P  P3994  1  0.37529672  0.57837386  0.25989666  1.0
  P  P3995  1  0.37529672  0.72123100  0.25989666  1.0
  P  P3996  1  0.37529672  0.86408815  0.25989666  1.0
  P  P3997  1  0.48640784  0.00694529  0.25989666  1.0
  P  P3998  1  0.48640784  0.14980243  0.25989666  1.0
  P  P3999  1  0.48640784  0.29265958  0.25989666  1.0
  P  P4000  1  0.48640784  0.43551672  0.25989666  1.0
  P  P4001  1  0.48640784  0.57837386  0.25989666  1.0
  P  P4002  1  0.48640784  0.72123100  0.25989666  1.0
  P  P4003  1  0.48640784  0.86408815  0.25989666  1.0
  P  P4004  1  0.59751895  0.00694529  0.25989666  1.0
  P  P4005  1  0.59751895  0.14980243  0.25989666  1.0
  P  P4006  1  0.59751895  0.29265958  0.25989666  1.0
  P  P4007  1  0.59751895  0.43551672  0.25989666  1.0
  P  P4008  1  0.59751895  0.57837386  0.25989666  1.0
  P  P4009  1  0.59751895  0.72123100  0.25989666  1.0
  P  P4010  1  0.59751895  0.86408815  0.25989666  1.0
  P  P4011  1  0.70863006  0.00694529  0.25989666  1.0
  P  P4012  1  0.70863006  0.14980243  0.25989666  1.0
  P  P4013  1  0.70863006  0.29265958  0.25989666  1.0
  P  P4014  1  0.70863006  0.43551672  0.25989666  1.0
  P  P4015  1  0.70863006  0.57837386  0.25989666  1.0
  P  P4016  1  0.70863006  0.72123100  0.25989666  1.0
  P  P4017  1  0.70863006  0.86408815  0.25989666  1.0
  P  P4018  1  0.81974117  0.00694529  0.25989666  1.0
  P  P4019  1  0.81974117  0.14980243  0.25989666  1.0
  P  P4020  1  0.81974117  0.29265958  0.25989666  1.0
  P  P4021  1  0.81974117  0.43551672  0.25989666  1.0
  P  P4022  1  0.81974117  0.57837386  0.25989666  1.0
  P  P4023  1  0.81974117  0.72123100  0.25989666  1.0
  P  P4024  1  0.81974117  0.86408815  0.25989666  1.0
  P  P4025  1  0.93085228  0.00694529  0.25989666  1.0
  P  P4026  1  0.93085228  0.14980243  0.25989666  1.0
  P  P4027  1  0.93085228  0.29265958  0.25989666  1.0
  P  P4028  1  0.93085228  0.43551672  0.25989666  1.0
  P  P4029  1  0.93085228  0.57837386  0.25989666  1.0
  P  P4030  1  0.93085228  0.72123100  0.25989666  1.0
  P  P4031  1  0.93085228  0.86408815  0.25989666  1.0
  P  P4032  1  0.06312741  0.02055073  0.30751571  1.0
  P  P4033  1  0.06312741  0.16340787  0.30751571  1.0
  P  P4034  1  0.06312741  0.30626502  0.30751571  1.0
  P  P4035  1  0.06312741  0.44912216  0.30751571  1.0
  P  P4036  1  0.06312741  0.59197930  0.30751571  1.0
  P  P4037  1  0.06312741  0.73483645  0.30751571  1.0
  P  P4038  1  0.06312741  0.87769359  0.30751571  1.0
  P  P4039  1  0.17423852  0.02055073  0.30751571  1.0
  P  P4040  1  0.17423852  0.16340787  0.30751571  1.0
  P  P4041  1  0.17423852  0.30626502  0.30751571  1.0
  P  P4042  1  0.17423852  0.44912216  0.30751571  1.0
  P  P4043  1  0.17423852  0.59197930  0.30751571  1.0
  P  P4044  1  0.17423852  0.73483645  0.30751571  1.0
  P  P4045  1  0.17423852  0.87769359  0.30751571  1.0
  P  P4046  1  0.28534963  0.02055073  0.30751571  1.0
  P  P4047  1  0.28534963  0.16340787  0.30751571  1.0
  P  P4048  1  0.28534963  0.30626502  0.30751571  1.0
  P  P4049  1  0.28534963  0.44912216  0.30751571  1.0
  P  P4050  1  0.28534963  0.59197930  0.30751571  1.0
  P  P4051  1  0.28534963  0.73483645  0.30751571  1.0
  P  P4052  1  0.28534963  0.87769359  0.30751571  1.0
  P  P4053  1  0.39646075  0.02055073  0.30751571  1.0
  P  P4054  1  0.39646075  0.16340787  0.30751571  1.0
  P  P4055  1  0.39646075  0.30626502  0.30751571  1.0
  P  P4056  1  0.39646075  0.44912216  0.30751571  1.0
  P  P4057  1  0.39646075  0.59197930  0.30751571  1.0
  P  P4058  1  0.39646075  0.73483645  0.30751571  1.0
  P  P4059  1  0.39646075  0.87769359  0.30751571  1.0
  P  P4060  1  0.50757186  0.02055073  0.30751571  1.0
  P  P4061  1  0.50757186  0.16340787  0.30751571  1.0
  P  P4062  1  0.50757186  0.30626502  0.30751571  1.0
  P  P4063  1  0.50757186  0.44912216  0.30751571  1.0
  P  P4064  1  0.50757186  0.59197930  0.30751571  1.0
  P  P4065  1  0.50757186  0.73483645  0.30751571  1.0
  P  P4066  1  0.50757186  0.87769359  0.30751571  1.0
  P  P4067  1  0.61868297  0.02055073  0.30751571  1.0
  P  P4068  1  0.61868297  0.16340787  0.30751571  1.0
  P  P4069  1  0.61868297  0.30626502  0.30751571  1.0
  P  P4070  1  0.61868297  0.44912216  0.30751571  1.0
  P  P4071  1  0.61868297  0.59197930  0.30751571  1.0
  P  P4072  1  0.61868297  0.73483645  0.30751571  1.0
  P  P4073  1  0.61868297  0.87769359  0.30751571  1.0
  P  P4074  1  0.72979408  0.02055073  0.30751571  1.0
  P  P4075  1  0.72979408  0.16340787  0.30751571  1.0
  P  P4076  1  0.72979408  0.30626502  0.30751571  1.0
  P  P4077  1  0.72979408  0.44912216  0.30751571  1.0
  P  P4078  1  0.72979408  0.59197930  0.30751571  1.0
  P  P4079  1  0.72979408  0.73483645  0.30751571  1.0
  P  P4080  1  0.72979408  0.87769359  0.30751571  1.0
  P  P4081  1  0.84090519  0.02055073  0.30751571  1.0
  P  P4082  1  0.84090519  0.16340787  0.30751571  1.0
  P  P4083  1  0.84090519  0.30626502  0.30751571  1.0
  P  P4084  1  0.84090519  0.44912216  0.30751571  1.0
  P  P4085  1  0.84090519  0.59197930  0.30751571  1.0
  P  P4086  1  0.84090519  0.73483645  0.30751571  1.0
  P  P4087  1  0.84090519  0.87769359  0.30751571  1.0
  P  P4088  1  0.95201630  0.02055073  0.30751571  1.0
  P  P4089  1  0.95201630  0.16340787  0.30751571  1.0
  P  P4090  1  0.95201630  0.30626502  0.30751571  1.0
  P  P4091  1  0.95201630  0.44912216  0.30751571  1.0
  P  P4092  1  0.95201630  0.59197930  0.30751571  1.0
  P  P4093  1  0.95201630  0.73483645  0.30751571  1.0
  P  P4094  1  0.95201630  0.87769359  0.30751571  1.0
  P  P4095  1  0.08429143  0.03415617  0.35513475  1.0
  P  P4096  1  0.08429143  0.17701332  0.35513475  1.0
  P  P4097  1  0.08429143  0.31987046  0.35513475  1.0
  P  P4098  1  0.08429143  0.46272760  0.35513475  1.0
  P  P4099  1  0.08429143  0.60558475  0.35513475  1.0
  P  P4100  1  0.08429143  0.74844189  0.35513475  1.0
  P  P4101  1  0.08429143  0.89129903  0.35513475  1.0
  P  P4102  1  0.19540254  0.03415617  0.35513475  1.0
  P  P4103  1  0.19540254  0.17701332  0.35513475  1.0
  P  P4104  1  0.19540254  0.31987046  0.35513475  1.0
  P  P4105  1  0.19540254  0.46272760  0.35513475  1.0
  P  P4106  1  0.19540254  0.60558475  0.35513475  1.0
  P  P4107  1  0.19540254  0.74844189  0.35513475  1.0
  P  P4108  1  0.19540254  0.89129903  0.35513475  1.0
  P  P4109  1  0.30651366  0.03415617  0.35513475  1.0
  P  P4110  1  0.30651366  0.17701332  0.35513475  1.0
  P  P4111  1  0.30651366  0.31987046  0.35513475  1.0
  P  P4112  1  0.30651366  0.46272760  0.35513475  1.0
  P  P4113  1  0.30651366  0.60558475  0.35513475  1.0
  P  P4114  1  0.30651366  0.74844189  0.35513475  1.0
  P  P4115  1  0.30651366  0.89129903  0.35513475  1.0
  P  P4116  1  0.41762477  0.03415617  0.35513475  1.0
  P  P4117  1  0.41762477  0.17701332  0.35513475  1.0
  P  P4118  1  0.41762477  0.31987046  0.35513475  1.0
  P  P4119  1  0.41762477  0.46272760  0.35513475  1.0
  P  P4120  1  0.41762477  0.60558475  0.35513475  1.0
  P  P4121  1  0.41762477  0.74844189  0.35513475  1.0
  P  P4122  1  0.41762477  0.89129903  0.35513475  1.0
  P  P4123  1  0.52873588  0.03415617  0.35513475  1.0
  P  P4124  1  0.52873588  0.17701332  0.35513475  1.0
  P  P4125  1  0.52873588  0.31987046  0.35513475  1.0
  P  P4126  1  0.52873588  0.46272760  0.35513475  1.0
  P  P4127  1  0.52873588  0.60558475  0.35513475  1.0
  P  P4128  1  0.52873588  0.74844189  0.35513475  1.0
  P  P4129  1  0.52873588  0.89129903  0.35513475  1.0
  P  P4130  1  0.63984699  0.03415617  0.35513475  1.0
  P  P4131  1  0.63984699  0.17701332  0.35513475  1.0
  P  P4132  1  0.63984699  0.31987046  0.35513475  1.0
  P  P4133  1  0.63984699  0.46272760  0.35513475  1.0
  P  P4134  1  0.63984699  0.60558475  0.35513475  1.0
  P  P4135  1  0.63984699  0.74844189  0.35513475  1.0
  P  P4136  1  0.63984699  0.89129903  0.35513475  1.0
  P  P4137  1  0.75095810  0.03415617  0.35513475  1.0
  P  P4138  1  0.75095810  0.17701332  0.35513475  1.0
  P  P4139  1  0.75095810  0.31987046  0.35513475  1.0
  P  P4140  1  0.75095810  0.46272760  0.35513475  1.0
  P  P4141  1  0.75095810  0.60558475  0.35513475  1.0
  P  P4142  1  0.75095810  0.74844189  0.35513475  1.0
  P  P4143  1  0.75095810  0.89129903  0.35513475  1.0
  P  P4144  1  0.86206921  0.03415617  0.35513475  1.0
  P  P4145  1  0.86206921  0.17701332  0.35513475  1.0
  P  P4146  1  0.86206921  0.31987046  0.35513475  1.0
  P  P4147  1  0.86206921  0.46272760  0.35513475  1.0
  P  P4148  1  0.86206921  0.60558475  0.35513475  1.0
  P  P4149  1  0.86206921  0.74844189  0.35513475  1.0
  P  P4150  1  0.86206921  0.89129903  0.35513475  1.0
  P  P4151  1  0.97318032  0.03415617  0.35513475  1.0
  P  P4152  1  0.97318032  0.17701332  0.35513475  1.0
  P  P4153  1  0.97318032  0.31987046  0.35513475  1.0
  P  P4154  1  0.97318032  0.46272760  0.35513475  1.0
  P  P4155  1  0.97318032  0.60558475  0.35513475  1.0
  P  P4156  1  0.97318032  0.74844189  0.35513475  1.0
  P  P4157  1  0.97318032  0.89129903  0.35513475  1.0
  P  P4158  1  0.08646420  0.08844937  0.29516093  1.0
  P  P4159  1  0.08646420  0.23130651  0.29516093  1.0
  P  P4160  1  0.08646420  0.37416365  0.29516093  1.0
  P  P4161  1  0.08646420  0.51702080  0.29516093  1.0
  P  P4162  1  0.08646420  0.65987794  0.29516093  1.0
  P  P4163  1  0.08646420  0.80273508  0.29516093  1.0
  P  P4164  1  0.08646420  0.94559223  0.29516093  1.0
  P  P4165  1  0.19757532  0.08844937  0.29516093  1.0
  P  P4166  1  0.19757532  0.23130651  0.29516093  1.0
  P  P4167  1  0.19757532  0.37416365  0.29516093  1.0
  P  P4168  1  0.19757532  0.51702080  0.29516093  1.0
  P  P4169  1  0.19757532  0.65987794  0.29516093  1.0
  P  P4170  1  0.19757532  0.80273508  0.29516093  1.0
  P  P4171  1  0.19757532  0.94559223  0.29516093  1.0
  P  P4172  1  0.30868643  0.08844937  0.29516093  1.0
  P  P4173  1  0.30868643  0.23130651  0.29516093  1.0
  P  P4174  1  0.30868643  0.37416365  0.29516093  1.0
  P  P4175  1  0.30868643  0.51702080  0.29516093  1.0
  P  P4176  1  0.30868643  0.65987794  0.29516093  1.0
  P  P4177  1  0.30868643  0.80273508  0.29516093  1.0
  P  P4178  1  0.30868643  0.94559223  0.29516093  1.0
  P  P4179  1  0.41979754  0.08844937  0.29516093  1.0
  P  P4180  1  0.41979754  0.23130651  0.29516093  1.0
  P  P4181  1  0.41979754  0.37416365  0.29516093  1.0
  P  P4182  1  0.41979754  0.51702080  0.29516093  1.0
  P  P4183  1  0.41979754  0.65987794  0.29516093  1.0
  P  P4184  1  0.41979754  0.80273508  0.29516093  1.0
  P  P4185  1  0.41979754  0.94559223  0.29516093  1.0
  P  P4186  1  0.53090865  0.08844937  0.29516093  1.0
  P  P4187  1  0.53090865  0.23130651  0.29516093  1.0
  P  P4188  1  0.53090865  0.37416365  0.29516093  1.0
  P  P4189  1  0.53090865  0.51702080  0.29516093  1.0
  P  P4190  1  0.53090865  0.65987794  0.29516093  1.0
  P  P4191  1  0.53090865  0.80273508  0.29516093  1.0
  P  P4192  1  0.53090865  0.94559223  0.29516093  1.0
  P  P4193  1  0.64201976  0.08844937  0.29516093  1.0
  P  P4194  1  0.64201976  0.23130651  0.29516093  1.0
  P  P4195  1  0.64201976  0.37416365  0.29516093  1.0
  P  P4196  1  0.64201976  0.51702080  0.29516093  1.0
  P  P4197  1  0.64201976  0.65987794  0.29516093  1.0
  P  P4198  1  0.64201976  0.80273508  0.29516093  1.0
  P  P4199  1  0.64201976  0.94559223  0.29516093  1.0
  P  P4200  1  0.75313087  0.08844937  0.29516093  1.0
  P  P4201  1  0.75313087  0.23130651  0.29516093  1.0
  P  P4202  1  0.75313087  0.37416365  0.29516093  1.0
  P  P4203  1  0.75313087  0.51702080  0.29516093  1.0
  P  P4204  1  0.75313087  0.65987794  0.29516093  1.0
  P  P4205  1  0.75313087  0.80273508  0.29516093  1.0
  P  P4206  1  0.75313087  0.94559223  0.29516093  1.0
  P  P4207  1  0.86424198  0.08844937  0.29516093  1.0
  P  P4208  1  0.86424198  0.23130651  0.29516093  1.0
  P  P4209  1  0.86424198  0.37416365  0.29516093  1.0
  P  P4210  1  0.86424198  0.51702080  0.29516093  1.0
  P  P4211  1  0.86424198  0.65987794  0.29516093  1.0
  P  P4212  1  0.86424198  0.80273508  0.29516093  1.0
  P  P4213  1  0.86424198  0.94559223  0.29516093  1.0
  P  P4214  1  0.97535309  0.08844937  0.29516093  1.0
  P  P4215  1  0.97535309  0.23130651  0.29516093  1.0
  P  P4216  1  0.97535309  0.37416365  0.29516093  1.0
  P  P4217  1  0.97535309  0.51702080  0.29516093  1.0
  P  P4218  1  0.97535309  0.65987794  0.29516093  1.0
  P  P4219  1  0.97535309  0.80273508  0.29516093  1.0
  P  P4220  1  0.97535309  0.94559223  0.29516093  1.0
  P  P4221  1  0.10762823  0.10205481  0.34277998  1.0
  P  P4222  1  0.10762823  0.24491195  0.34277998  1.0
  P  P4223  1  0.10762823  0.38776910  0.34277998  1.0
  P  P4224  1  0.10762823  0.53062624  0.34277998  1.0
  P  P4225  1  0.10762823  0.67348338  0.34277998  1.0
  P  P4226  1  0.10762823  0.81634052  0.34277998  1.0
  P  P4227  1  0.10762823  0.95919767  0.34277998  1.0
  P  P4228  1  0.21873934  0.10205481  0.34277998  1.0
  P  P4229  1  0.21873934  0.24491195  0.34277998  1.0
  P  P4230  1  0.21873934  0.38776910  0.34277998  1.0
  P  P4231  1  0.21873934  0.53062624  0.34277998  1.0
  P  P4232  1  0.21873934  0.67348338  0.34277998  1.0
  P  P4233  1  0.21873934  0.81634052  0.34277998  1.0
  P  P4234  1  0.21873934  0.95919767  0.34277998  1.0
  P  P4235  1  0.32985045  0.10205481  0.34277998  1.0
  P  P4236  1  0.32985045  0.24491195  0.34277998  1.0
  P  P4237  1  0.32985045  0.38776910  0.34277998  1.0
  P  P4238  1  0.32985045  0.53062624  0.34277998  1.0
  P  P4239  1  0.32985045  0.67348338  0.34277998  1.0
  P  P4240  1  0.32985045  0.81634052  0.34277998  1.0
  P  P4241  1  0.32985045  0.95919767  0.34277998  1.0
  P  P4242  1  0.44096156  0.10205481  0.34277998  1.0
  P  P4243  1  0.44096156  0.24491195  0.34277998  1.0
  P  P4244  1  0.44096156  0.38776910  0.34277998  1.0
  P  P4245  1  0.44096156  0.53062624  0.34277998  1.0
  P  P4246  1  0.44096156  0.67348338  0.34277998  1.0
  P  P4247  1  0.44096156  0.81634052  0.34277998  1.0
  P  P4248  1  0.44096156  0.95919767  0.34277998  1.0
  P  P4249  1  0.55207267  0.10205481  0.34277998  1.0
  P  P4250  1  0.55207267  0.24491195  0.34277998  1.0
  P  P4251  1  0.55207267  0.38776910  0.34277998  1.0
  P  P4252  1  0.55207267  0.53062624  0.34277998  1.0
  P  P4253  1  0.55207267  0.67348338  0.34277998  1.0
  P  P4254  1  0.55207267  0.81634052  0.34277998  1.0
  P  P4255  1  0.55207267  0.95919767  0.34277998  1.0
  P  P4256  1  0.66318378  0.10205481  0.34277998  1.0
  P  P4257  1  0.66318378  0.24491195  0.34277998  1.0
  P  P4258  1  0.66318378  0.38776910  0.34277998  1.0
  P  P4259  1  0.66318378  0.53062624  0.34277998  1.0
  P  P4260  1  0.66318378  0.67348338  0.34277998  1.0
  P  P4261  1  0.66318378  0.81634052  0.34277998  1.0
  P  P4262  1  0.66318378  0.95919767  0.34277998  1.0
  P  P4263  1  0.77429489  0.10205481  0.34277998  1.0
  P  P4264  1  0.77429489  0.24491195  0.34277998  1.0
  P  P4265  1  0.77429489  0.38776910  0.34277998  1.0
  P  P4266  1  0.77429489  0.53062624  0.34277998  1.0
  P  P4267  1  0.77429489  0.67348338  0.34277998  1.0
  P  P4268  1  0.77429489  0.81634052  0.34277998  1.0
  P  P4269  1  0.77429489  0.95919767  0.34277998  1.0
  P  P4270  1  0.88540600  0.10205481  0.34277998  1.0
  P  P4271  1  0.88540600  0.24491195  0.34277998  1.0
  P  P4272  1  0.88540600  0.38776910  0.34277998  1.0
  P  P4273  1  0.88540600  0.53062624  0.34277998  1.0
  P  P4274  1  0.88540600  0.67348338  0.34277998  1.0
  P  P4275  1  0.88540600  0.81634052  0.34277998  1.0
  P  P4276  1  0.88540600  0.95919767  0.34277998  1.0
  P  P4277  1  0.99651712  0.10205481  0.34277998  1.0
  P  P4278  1  0.99651712  0.24491195  0.34277998  1.0
  P  P4279  1  0.99651712  0.38776910  0.34277998  1.0
  P  P4280  1  0.99651712  0.53062624  0.34277998  1.0
  P  P4281  1  0.99651712  0.67348338  0.34277998  1.0
  P  P4282  1  0.99651712  0.81634052  0.34277998  1.0
  P  P4283  1  0.99651712  0.95919767  0.34277998  1.0
  P  P4284  1  0.06530018  0.07484393  0.24754189  1.0
  P  P4285  1  0.06530018  0.21770107  0.24754189  1.0
  P  P4286  1  0.06530018  0.36055821  0.24754189  1.0
  P  P4287  1  0.06530018  0.50341535  0.24754189  1.0
  P  P4288  1  0.06530018  0.64627250  0.24754189  1.0
  P  P4289  1  0.06530018  0.78912964  0.24754189  1.0
  P  P4290  1  0.06530018  0.93198678  0.24754189  1.0
  P  P4291  1  0.17641129  0.07484393  0.24754189  1.0
  P  P4292  1  0.17641129  0.21770107  0.24754189  1.0
  P  P4293  1  0.17641129  0.36055821  0.24754189  1.0
  P  P4294  1  0.17641129  0.50341535  0.24754189  1.0
  P  P4295  1  0.17641129  0.64627250  0.24754189  1.0
  P  P4296  1  0.17641129  0.78912964  0.24754189  1.0
  P  P4297  1  0.17641129  0.93198678  0.24754189  1.0
  P  P4298  1  0.28752241  0.07484393  0.24754189  1.0
  P  P4299  1  0.28752241  0.21770107  0.24754189  1.0
  P  P4300  1  0.28752241  0.36055821  0.24754189  1.0
  P  P4301  1  0.28752241  0.50341535  0.24754189  1.0
  P  P4302  1  0.28752241  0.64627250  0.24754189  1.0
  P  P4303  1  0.28752241  0.78912964  0.24754189  1.0
  P  P4304  1  0.28752241  0.93198678  0.24754189  1.0
  P  P4305  1  0.39863352  0.07484393  0.24754189  1.0
  P  P4306  1  0.39863352  0.21770107  0.24754189  1.0
  P  P4307  1  0.39863352  0.36055821  0.24754189  1.0
  P  P4308  1  0.39863352  0.50341535  0.24754189  1.0
  P  P4309  1  0.39863352  0.64627250  0.24754189  1.0
  P  P4310  1  0.39863352  0.78912964  0.24754189  1.0
  P  P4311  1  0.39863352  0.93198678  0.24754189  1.0
  P  P4312  1  0.50974463  0.07484393  0.24754189  1.0
  P  P4313  1  0.50974463  0.21770107  0.24754189  1.0
  P  P4314  1  0.50974463  0.36055821  0.24754189  1.0
  P  P4315  1  0.50974463  0.50341535  0.24754189  1.0
  P  P4316  1  0.50974463  0.64627250  0.24754189  1.0
  P  P4317  1  0.50974463  0.78912964  0.24754189  1.0
  P  P4318  1  0.50974463  0.93198678  0.24754189  1.0
  P  P4319  1  0.62085574  0.07484393  0.24754189  1.0
  P  P4320  1  0.62085574  0.21770107  0.24754189  1.0
  P  P4321  1  0.62085574  0.36055821  0.24754189  1.0
  P  P4322  1  0.62085574  0.50341535  0.24754189  1.0
  P  P4323  1  0.62085574  0.64627250  0.24754189  1.0
  P  P4324  1  0.62085574  0.78912964  0.24754189  1.0
  P  P4325  1  0.62085574  0.93198678  0.24754189  1.0
  P  P4326  1  0.73196685  0.07484393  0.24754189  1.0
  P  P4327  1  0.73196685  0.21770107  0.24754189  1.0
  P  P4328  1  0.73196685  0.36055821  0.24754189  1.0
  P  P4329  1  0.73196685  0.50341535  0.24754189  1.0
  P  P4330  1  0.73196685  0.64627250  0.24754189  1.0
  P  P4331  1  0.73196685  0.78912964  0.24754189  1.0
  P  P4332  1  0.73196685  0.93198678  0.24754189  1.0
  P  P4333  1  0.84307796  0.07484393  0.24754189  1.0
  P  P4334  1  0.84307796  0.21770107  0.24754189  1.0
  P  P4335  1  0.84307796  0.36055821  0.24754189  1.0
  P  P4336  1  0.84307796  0.50341535  0.24754189  1.0
  P  P4337  1  0.84307796  0.64627250  0.24754189  1.0
  P  P4338  1  0.84307796  0.78912964  0.24754189  1.0
  P  P4339  1  0.84307796  0.93198678  0.24754189  1.0
  P  P4340  1  0.95418907  0.07484393  0.24754189  1.0
  P  P4341  1  0.95418907  0.21770107  0.24754189  1.0
  P  P4342  1  0.95418907  0.36055821  0.24754189  1.0
  P  P4343  1  0.95418907  0.50341535  0.24754189  1.0
  P  P4344  1  0.95418907  0.64627250  0.24754189  1.0
  P  P4345  1  0.95418907  0.78912964  0.24754189  1.0
  P  P4346  1  0.95418907  0.93198678  0.24754189  1.0
  P  P4347  1  0.09584080  0.08862253  0.25612083  1.0
  P  P4348  1  0.09584080  0.23147967  0.25612083  1.0
  P  P4349  1  0.09584080  0.37433682  0.25612083  1.0
  P  P4350  1  0.09584080  0.51719396  0.25612083  1.0
  P  P4351  1  0.09584080  0.66005110  0.25612083  1.0
  P  P4352  1  0.09584080  0.80290824  0.25612083  1.0
  P  P4353  1  0.09584080  0.94576539  0.25612083  1.0
  P  P4354  1  0.20695191  0.08862253  0.25612083  1.0
  P  P4355  1  0.20695191  0.23147967  0.25612083  1.0
  P  P4356  1  0.20695191  0.37433682  0.25612083  1.0
  P  P4357  1  0.20695191  0.51719396  0.25612083  1.0
  P  P4358  1  0.20695191  0.66005110  0.25612083  1.0
  P  P4359  1  0.20695191  0.80290824  0.25612083  1.0
  P  P4360  1  0.20695191  0.94576539  0.25612083  1.0
  P  P4361  1  0.31806302  0.08862253  0.25612083  1.0
  P  P4362  1  0.31806302  0.23147967  0.25612083  1.0
  P  P4363  1  0.31806302  0.37433682  0.25612083  1.0
  P  P4364  1  0.31806302  0.51719396  0.25612083  1.0
  P  P4365  1  0.31806302  0.66005110  0.25612083  1.0
  P  P4366  1  0.31806302  0.80290824  0.25612083  1.0
  P  P4367  1  0.31806302  0.94576539  0.25612083  1.0
  P  P4368  1  0.42917414  0.08862253  0.25612083  1.0
  P  P4369  1  0.42917414  0.23147967  0.25612083  1.0
  P  P4370  1  0.42917414  0.37433682  0.25612083  1.0
  P  P4371  1  0.42917414  0.51719396  0.25612083  1.0
  P  P4372  1  0.42917414  0.66005110  0.25612083  1.0
  P  P4373  1  0.42917414  0.80290824  0.25612083  1.0
  P  P4374  1  0.42917414  0.94576539  0.25612083  1.0
  P  P4375  1  0.54028525  0.08862253  0.25612083  1.0
  P  P4376  1  0.54028525  0.23147967  0.25612083  1.0
  P  P4377  1  0.54028525  0.37433682  0.25612083  1.0
  P  P4378  1  0.54028525  0.51719396  0.25612083  1.0
  P  P4379  1  0.54028525  0.66005110  0.25612083  1.0
  P  P4380  1  0.54028525  0.80290824  0.25612083  1.0
  P  P4381  1  0.54028525  0.94576539  0.25612083  1.0
  P  P4382  1  0.65139636  0.08862253  0.25612083  1.0
  P  P4383  1  0.65139636  0.23147967  0.25612083  1.0
  P  P4384  1  0.65139636  0.37433682  0.25612083  1.0
  P  P4385  1  0.65139636  0.51719396  0.25612083  1.0
  P  P4386  1  0.65139636  0.66005110  0.25612083  1.0
  P  P4387  1  0.65139636  0.80290824  0.25612083  1.0
  P  P4388  1  0.65139636  0.94576539  0.25612083  1.0
  P  P4389  1  0.76250747  0.08862253  0.25612083  1.0
  P  P4390  1  0.76250747  0.23147967  0.25612083  1.0
  P  P4391  1  0.76250747  0.37433682  0.25612083  1.0
  P  P4392  1  0.76250747  0.51719396  0.25612083  1.0
  P  P4393  1  0.76250747  0.66005110  0.25612083  1.0
  P  P4394  1  0.76250747  0.80290824  0.25612083  1.0
  P  P4395  1  0.76250747  0.94576539  0.25612083  1.0
  P  P4396  1  0.87361858  0.08862253  0.25612083  1.0
  P  P4397  1  0.87361858  0.23147967  0.25612083  1.0
  P  P4398  1  0.87361858  0.37433682  0.25612083  1.0
  P  P4399  1  0.87361858  0.51719396  0.25612083  1.0
  P  P4400  1  0.87361858  0.66005110  0.25612083  1.0
  P  P4401  1  0.87361858  0.80290824  0.25612083  1.0
  P  P4402  1  0.87361858  0.94576539  0.25612083  1.0
  P  P4403  1  0.98472969  0.08862253  0.25612083  1.0
  P  P4404  1  0.98472969  0.23147967  0.25612083  1.0
  P  P4405  1  0.98472969  0.37433682  0.25612083  1.0
  P  P4406  1  0.98472969  0.51719396  0.25612083  1.0
  P  P4407  1  0.98472969  0.66005110  0.25612083  1.0
  P  P4408  1  0.98472969  0.80290824  0.25612083  1.0
  P  P4409  1  0.98472969  0.94576539  0.25612083  1.0
  P  P4410  1  0.00589371  0.10222797  0.30373988  1.0
  P  P4411  1  0.00589371  0.24508512  0.30373988  1.0
  P  P4412  1  0.00589371  0.38794226  0.30373988  1.0
  P  P4413  1  0.00589371  0.53079940  0.30373988  1.0
  P  P4414  1  0.00589371  0.67365654  0.30373988  1.0
  P  P4415  1  0.00589371  0.81651369  0.30373988  1.0
  P  P4416  1  0.00589371  0.95937083  0.30373988  1.0
  P  P4417  1  0.11700482  0.10222797  0.30373988  1.0
  P  P4418  1  0.11700482  0.24508512  0.30373988  1.0
  P  P4419  1  0.11700482  0.38794226  0.30373988  1.0
  P  P4420  1  0.11700482  0.53079940  0.30373988  1.0
  P  P4421  1  0.11700482  0.67365654  0.30373988  1.0
  P  P4422  1  0.11700482  0.81651369  0.30373988  1.0
  P  P4423  1  0.11700482  0.95937083  0.30373988  1.0
  P  P4424  1  0.22811593  0.10222797  0.30373988  1.0
  P  P4425  1  0.22811593  0.24508512  0.30373988  1.0
  P  P4426  1  0.22811593  0.38794226  0.30373988  1.0
  P  P4427  1  0.22811593  0.53079940  0.30373988  1.0
  P  P4428  1  0.22811593  0.67365654  0.30373988  1.0
  P  P4429  1  0.22811593  0.81651369  0.30373988  1.0
  P  P4430  1  0.22811593  0.95937083  0.30373988  1.0
  P  P4431  1  0.33922705  0.10222797  0.30373988  1.0
  P  P4432  1  0.33922705  0.24508512  0.30373988  1.0
  P  P4433  1  0.33922705  0.38794226  0.30373988  1.0
  P  P4434  1  0.33922705  0.53079940  0.30373988  1.0
  P  P4435  1  0.33922705  0.67365654  0.30373988  1.0
  P  P4436  1  0.33922705  0.81651369  0.30373988  1.0
  P  P4437  1  0.33922705  0.95937083  0.30373988  1.0
  P  P4438  1  0.45033816  0.10222797  0.30373988  1.0
  P  P4439  1  0.45033816  0.24508512  0.30373988  1.0
  P  P4440  1  0.45033816  0.38794226  0.30373988  1.0
  P  P4441  1  0.45033816  0.53079940  0.30373988  1.0
  P  P4442  1  0.45033816  0.67365654  0.30373988  1.0
  P  P4443  1  0.45033816  0.81651369  0.30373988  1.0
  P  P4444  1  0.45033816  0.95937083  0.30373988  1.0
  P  P4445  1  0.56144927  0.10222797  0.30373988  1.0
  P  P4446  1  0.56144927  0.24508512  0.30373988  1.0
  P  P4447  1  0.56144927  0.38794226  0.30373988  1.0
  P  P4448  1  0.56144927  0.53079940  0.30373988  1.0
  P  P4449  1  0.56144927  0.67365654  0.30373988  1.0
  P  P4450  1  0.56144927  0.81651369  0.30373988  1.0
  P  P4451  1  0.56144927  0.95937083  0.30373988  1.0
  P  P4452  1  0.67256038  0.10222797  0.30373988  1.0
  P  P4453  1  0.67256038  0.24508512  0.30373988  1.0
  P  P4454  1  0.67256038  0.38794226  0.30373988  1.0
  P  P4455  1  0.67256038  0.53079940  0.30373988  1.0
  P  P4456  1  0.67256038  0.67365654  0.30373988  1.0
  P  P4457  1  0.67256038  0.81651369  0.30373988  1.0
  P  P4458  1  0.67256038  0.95937083  0.30373988  1.0
  P  P4459  1  0.78367149  0.10222797  0.30373988  1.0
  P  P4460  1  0.78367149  0.24508512  0.30373988  1.0
  P  P4461  1  0.78367149  0.38794226  0.30373988  1.0
  P  P4462  1  0.78367149  0.53079940  0.30373988  1.0
  P  P4463  1  0.78367149  0.67365654  0.30373988  1.0
  P  P4464  1  0.78367149  0.81651369  0.30373988  1.0
  P  P4465  1  0.78367149  0.95937083  0.30373988  1.0
  P  P4466  1  0.89478260  0.10222797  0.30373988  1.0
  P  P4467  1  0.89478260  0.24508512  0.30373988  1.0
  P  P4468  1  0.89478260  0.38794226  0.30373988  1.0
  P  P4469  1  0.89478260  0.53079940  0.30373988  1.0
  P  P4470  1  0.89478260  0.67365654  0.30373988  1.0
  P  P4471  1  0.89478260  0.81651369  0.30373988  1.0
  P  P4472  1  0.89478260  0.95937083  0.30373988  1.0
  P  P4473  1  0.02705773  0.11583341  0.35135893  1.0
  P  P4474  1  0.02705773  0.25869056  0.35135893  1.0
  P  P4475  1  0.02705773  0.40154770  0.35135893  1.0
  P  P4476  1  0.02705773  0.54440484  0.35135893  1.0
  P  P4477  1  0.02705773  0.68726199  0.35135893  1.0
  P  P4478  1  0.02705773  0.83011913  0.35135893  1.0
  P  P4479  1  0.02705773  0.97297627  0.35135893  1.0
  P  P4480  1  0.13816884  0.11583341  0.35135893  1.0
  P  P4481  1  0.13816884  0.25869056  0.35135893  1.0
  P  P4482  1  0.13816884  0.40154770  0.35135893  1.0
  P  P4483  1  0.13816884  0.54440484  0.35135893  1.0
  P  P4484  1  0.13816884  0.68726199  0.35135893  1.0
  P  P4485  1  0.13816884  0.83011913  0.35135893  1.0
  P  P4486  1  0.13816884  0.97297627  0.35135893  1.0
  P  P4487  1  0.24927996  0.11583341  0.35135893  1.0
  P  P4488  1  0.24927996  0.25869056  0.35135893  1.0
  P  P4489  1  0.24927996  0.40154770  0.35135893  1.0
  P  P4490  1  0.24927996  0.54440484  0.35135893  1.0
  P  P4491  1  0.24927996  0.68726199  0.35135893  1.0
  P  P4492  1  0.24927996  0.83011913  0.35135893  1.0
  P  P4493  1  0.24927996  0.97297627  0.35135893  1.0
  P  P4494  1  0.36039107  0.11583341  0.35135893  1.0
  P  P4495  1  0.36039107  0.25869056  0.35135893  1.0
  P  P4496  1  0.36039107  0.40154770  0.35135893  1.0
  P  P4497  1  0.36039107  0.54440484  0.35135893  1.0
  P  P4498  1  0.36039107  0.68726199  0.35135893  1.0
  P  P4499  1  0.36039107  0.83011913  0.35135893  1.0
  P  P4500  1  0.36039107  0.97297627  0.35135893  1.0
  P  P4501  1  0.47150218  0.11583341  0.35135893  1.0
  P  P4502  1  0.47150218  0.25869056  0.35135893  1.0
  P  P4503  1  0.47150218  0.40154770  0.35135893  1.0
  P  P4504  1  0.47150218  0.54440484  0.35135893  1.0
  P  P4505  1  0.47150218  0.68726199  0.35135893  1.0
  P  P4506  1  0.47150218  0.83011913  0.35135893  1.0
  P  P4507  1  0.47150218  0.97297627  0.35135893  1.0
  P  P4508  1  0.58261329  0.11583341  0.35135893  1.0
  P  P4509  1  0.58261329  0.25869056  0.35135893  1.0
  P  P4510  1  0.58261329  0.40154770  0.35135893  1.0
  P  P4511  1  0.58261329  0.54440484  0.35135893  1.0
  P  P4512  1  0.58261329  0.68726199  0.35135893  1.0
  P  P4513  1  0.58261329  0.83011913  0.35135893  1.0
  P  P4514  1  0.58261329  0.97297627  0.35135893  1.0
  P  P4515  1  0.69372440  0.11583341  0.35135893  1.0
  P  P4516  1  0.69372440  0.25869056  0.35135893  1.0
  P  P4517  1  0.69372440  0.40154770  0.35135893  1.0
  P  P4518  1  0.69372440  0.54440484  0.35135893  1.0
  P  P4519  1  0.69372440  0.68726199  0.35135893  1.0
  P  P4520  1  0.69372440  0.83011913  0.35135893  1.0
  P  P4521  1  0.69372440  0.97297627  0.35135893  1.0
  P  P4522  1  0.80483551  0.11583341  0.35135893  1.0
  P  P4523  1  0.80483551  0.25869056  0.35135893  1.0
  P  P4524  1  0.80483551  0.40154770  0.35135893  1.0
  P  P4525  1  0.80483551  0.54440484  0.35135893  1.0
  P  P4526  1  0.80483551  0.68726199  0.35135893  1.0
  P  P4527  1  0.80483551  0.83011913  0.35135893  1.0
  P  P4528  1  0.80483551  0.97297627  0.35135893  1.0
  P  P4529  1  0.91594662  0.11583341  0.35135893  1.0
  P  P4530  1  0.91594662  0.25869056  0.35135893  1.0
  P  P4531  1  0.91594662  0.40154770  0.35135893  1.0
  P  P4532  1  0.91594662  0.54440484  0.35135893  1.0
  P  P4533  1  0.91594662  0.68726199  0.35135893  1.0
  P  P4534  1  0.91594662  0.83011913  0.35135893  1.0
  P  P4535  1  0.91594662  0.97297627  0.35135893  1.0
  P  P4536  1  0.05383055  0.07783363  0.41969514  1.0
  P  P4537  1  0.05383055  0.22069078  0.41969514  1.0
  P  P4538  1  0.05383055  0.36354792  0.41969514  1.0
  P  P4539  1  0.05383055  0.50640506  0.41969514  1.0
  P  P4540  1  0.05383055  0.64926221  0.41969514  1.0
  P  P4541  1  0.05383055  0.79211935  0.41969514  1.0
  P  P4542  1  0.05383055  0.93497649  0.41969514  1.0
  P  P4543  1  0.16494166  0.07783363  0.41969514  1.0
  P  P4544  1  0.16494166  0.22069078  0.41969514  1.0
  P  P4545  1  0.16494166  0.36354792  0.41969514  1.0
  P  P4546  1  0.16494166  0.50640506  0.41969514  1.0
  P  P4547  1  0.16494166  0.64926221  0.41969514  1.0
  P  P4548  1  0.16494166  0.79211935  0.41969514  1.0
  P  P4549  1  0.16494166  0.93497649  0.41969514  1.0
  P  P4550  1  0.27605278  0.07783363  0.41969514  1.0
  P  P4551  1  0.27605278  0.22069078  0.41969514  1.0
  P  P4552  1  0.27605278  0.36354792  0.41969514  1.0
  P  P4553  1  0.27605278  0.50640506  0.41969514  1.0
  P  P4554  1  0.27605278  0.64926221  0.41969514  1.0
  P  P4555  1  0.27605278  0.79211935  0.41969514  1.0
  P  P4556  1  0.27605278  0.93497649  0.41969514  1.0
  P  P4557  1  0.38716389  0.07783363  0.41969514  1.0
  P  P4558  1  0.38716389  0.22069078  0.41969514  1.0
  P  P4559  1  0.38716389  0.36354792  0.41969514  1.0
  P  P4560  1  0.38716389  0.50640506  0.41969514  1.0
  P  P4561  1  0.38716389  0.64926221  0.41969514  1.0
  P  P4562  1  0.38716389  0.79211935  0.41969514  1.0
  P  P4563  1  0.38716389  0.93497649  0.41969514  1.0
  P  P4564  1  0.49827500  0.07783363  0.41969514  1.0
  P  P4565  1  0.49827500  0.22069078  0.41969514  1.0
  P  P4566  1  0.49827500  0.36354792  0.41969514  1.0
  P  P4567  1  0.49827500  0.50640506  0.41969514  1.0
  P  P4568  1  0.49827500  0.64926221  0.41969514  1.0
  P  P4569  1  0.49827500  0.79211935  0.41969514  1.0
  P  P4570  1  0.49827500  0.93497649  0.41969514  1.0
  P  P4571  1  0.60938611  0.07783363  0.41969514  1.0
  P  P4572  1  0.60938611  0.22069078  0.41969514  1.0
  P  P4573  1  0.60938611  0.36354792  0.41969514  1.0
  P  P4574  1  0.60938611  0.50640506  0.41969514  1.0
  P  P4575  1  0.60938611  0.64926221  0.41969514  1.0
  P  P4576  1  0.60938611  0.79211935  0.41969514  1.0
  P  P4577  1  0.60938611  0.93497649  0.41969514  1.0
  P  P4578  1  0.72049722  0.07783363  0.41969514  1.0
  P  P4579  1  0.72049722  0.22069078  0.41969514  1.0
  P  P4580  1  0.72049722  0.36354792  0.41969514  1.0
  P  P4581  1  0.72049722  0.50640506  0.41969514  1.0
  P  P4582  1  0.72049722  0.64926221  0.41969514  1.0
  P  P4583  1  0.72049722  0.79211935  0.41969514  1.0
  P  P4584  1  0.72049722  0.93497649  0.41969514  1.0
  P  P4585  1  0.83160833  0.07783363  0.41969514  1.0
  P  P4586  1  0.83160833  0.22069078  0.41969514  1.0
  P  P4587  1  0.83160833  0.36354792  0.41969514  1.0
  P  P4588  1  0.83160833  0.50640506  0.41969514  1.0
  P  P4589  1  0.83160833  0.64926221  0.41969514  1.0
  P  P4590  1  0.83160833  0.79211935  0.41969514  1.0
  P  P4591  1  0.83160833  0.93497649  0.41969514  1.0
  P  P4592  1  0.94271944  0.07783363  0.41969514  1.0
  P  P4593  1  0.94271944  0.22069078  0.41969514  1.0
  P  P4594  1  0.94271944  0.36354792  0.41969514  1.0
  P  P4595  1  0.94271944  0.50640506  0.41969514  1.0
  P  P4596  1  0.94271944  0.64926221  0.41969514  1.0
  P  P4597  1  0.94271944  0.79211935  0.41969514  1.0
  P  P4598  1  0.94271944  0.93497649  0.41969514  1.0
  P  P4599  1  0.07499457  0.09143908  0.46731418  1.0
  P  P4600  1  0.07499457  0.23429622  0.46731418  1.0
  P  P4601  1  0.07499457  0.37715336  0.46731418  1.0
  P  P4602  1  0.07499457  0.52001050  0.46731418  1.0
  P  P4603  1  0.07499457  0.66286765  0.46731418  1.0
  P  P4604  1  0.07499457  0.80572479  0.46731418  1.0
  P  P4605  1  0.07499457  0.94858193  0.46731418  1.0
  P  P4606  1  0.18610569  0.09143908  0.46731418  1.0
  P  P4607  1  0.18610569  0.23429622  0.46731418  1.0
  P  P4608  1  0.18610569  0.37715336  0.46731418  1.0
  P  P4609  1  0.18610569  0.52001050  0.46731418  1.0
  P  P4610  1  0.18610569  0.66286765  0.46731418  1.0
  P  P4611  1  0.18610569  0.80572479  0.46731418  1.0
  P  P4612  1  0.18610569  0.94858193  0.46731418  1.0
  P  P4613  1  0.29721680  0.09143908  0.46731418  1.0
  P  P4614  1  0.29721680  0.23429622  0.46731418  1.0
  P  P4615  1  0.29721680  0.37715336  0.46731418  1.0
  P  P4616  1  0.29721680  0.52001050  0.46731418  1.0
  P  P4617  1  0.29721680  0.66286765  0.46731418  1.0
  P  P4618  1  0.29721680  0.80572479  0.46731418  1.0
  P  P4619  1  0.29721680  0.94858193  0.46731418  1.0
  P  P4620  1  0.40832791  0.09143908  0.46731418  1.0
  P  P4621  1  0.40832791  0.23429622  0.46731418  1.0
  P  P4622  1  0.40832791  0.37715336  0.46731418  1.0
  P  P4623  1  0.40832791  0.52001050  0.46731418  1.0
  P  P4624  1  0.40832791  0.66286765  0.46731418  1.0
  P  P4625  1  0.40832791  0.80572479  0.46731418  1.0
  P  P4626  1  0.40832791  0.94858193  0.46731418  1.0
  P  P4627  1  0.51943902  0.09143908  0.46731418  1.0
  P  P4628  1  0.51943902  0.23429622  0.46731418  1.0
  P  P4629  1  0.51943902  0.37715336  0.46731418  1.0
  P  P4630  1  0.51943902  0.52001050  0.46731418  1.0
  P  P4631  1  0.51943902  0.66286765  0.46731418  1.0
  P  P4632  1  0.51943902  0.80572479  0.46731418  1.0
  P  P4633  1  0.51943902  0.94858193  0.46731418  1.0
  P  P4634  1  0.63055013  0.09143908  0.46731418  1.0
  P  P4635  1  0.63055013  0.23429622  0.46731418  1.0
  P  P4636  1  0.63055013  0.37715336  0.46731418  1.0
  P  P4637  1  0.63055013  0.52001050  0.46731418  1.0
  P  P4638  1  0.63055013  0.66286765  0.46731418  1.0
  P  P4639  1  0.63055013  0.80572479  0.46731418  1.0
  P  P4640  1  0.63055013  0.94858193  0.46731418  1.0
  P  P4641  1  0.74166124  0.09143908  0.46731418  1.0
  P  P4642  1  0.74166124  0.23429622  0.46731418  1.0
  P  P4643  1  0.74166124  0.37715336  0.46731418  1.0
  P  P4644  1  0.74166124  0.52001050  0.46731418  1.0
  P  P4645  1  0.74166124  0.66286765  0.46731418  1.0
  P  P4646  1  0.74166124  0.80572479  0.46731418  1.0
  P  P4647  1  0.74166124  0.94858193  0.46731418  1.0
  P  P4648  1  0.85277235  0.09143908  0.46731418  1.0
  P  P4649  1  0.85277235  0.23429622  0.46731418  1.0
  P  P4650  1  0.85277235  0.37715336  0.46731418  1.0
  P  P4651  1  0.85277235  0.52001050  0.46731418  1.0
  P  P4652  1  0.85277235  0.66286765  0.46731418  1.0
  P  P4653  1  0.85277235  0.80572479  0.46731418  1.0
  P  P4654  1  0.85277235  0.94858193  0.46731418  1.0
  P  P4655  1  0.96388346  0.09143908  0.46731418  1.0
  P  P4656  1  0.96388346  0.23429622  0.46731418  1.0
  P  P4657  1  0.96388346  0.37715336  0.46731418  1.0
  P  P4658  1  0.96388346  0.52001050  0.46731418  1.0
  P  P4659  1  0.96388346  0.66286765  0.46731418  1.0
  P  P4660  1  0.96388346  0.80572479  0.46731418  1.0
  P  P4661  1  0.96388346  0.94858193  0.46731418  1.0
  P  P4662  1  0.03266653  0.06422819  0.37207609  1.0
  P  P4663  1  0.03266653  0.20708533  0.37207609  1.0
  P  P4664  1  0.03266653  0.34994248  0.37207609  1.0
  P  P4665  1  0.03266653  0.49279962  0.37207609  1.0
  P  P4666  1  0.03266653  0.63565676  0.37207609  1.0
  P  P4667  1  0.03266653  0.77851391  0.37207609  1.0
  P  P4668  1  0.03266653  0.92137105  0.37207609  1.0
  P  P4669  1  0.14377764  0.06422819  0.37207609  1.0
  P  P4670  1  0.14377764  0.20708533  0.37207609  1.0
  P  P4671  1  0.14377764  0.34994248  0.37207609  1.0
  P  P4672  1  0.14377764  0.49279962  0.37207609  1.0
  P  P4673  1  0.14377764  0.63565676  0.37207609  1.0
  P  P4674  1  0.14377764  0.77851391  0.37207609  1.0
  P  P4675  1  0.14377764  0.92137105  0.37207609  1.0
  P  P4676  1  0.25488875  0.06422819  0.37207609  1.0
  P  P4677  1  0.25488875  0.20708533  0.37207609  1.0
  P  P4678  1  0.25488875  0.34994248  0.37207609  1.0
  P  P4679  1  0.25488875  0.49279962  0.37207609  1.0
  P  P4680  1  0.25488875  0.63565676  0.37207609  1.0
  P  P4681  1  0.25488875  0.77851391  0.37207609  1.0
  P  P4682  1  0.25488875  0.92137105  0.37207609  1.0
  P  P4683  1  0.36599987  0.06422819  0.37207609  1.0
  P  P4684  1  0.36599987  0.20708533  0.37207609  1.0
  P  P4685  1  0.36599987  0.34994248  0.37207609  1.0
  P  P4686  1  0.36599987  0.49279962  0.37207609  1.0
  P  P4687  1  0.36599987  0.63565676  0.37207609  1.0
  P  P4688  1  0.36599987  0.77851391  0.37207609  1.0
  P  P4689  1  0.36599987  0.92137105  0.37207609  1.0
  P  P4690  1  0.47711098  0.06422819  0.37207609  1.0
  P  P4691  1  0.47711098  0.20708533  0.37207609  1.0
  P  P4692  1  0.47711098  0.34994248  0.37207609  1.0
  P  P4693  1  0.47711098  0.49279962  0.37207609  1.0
  P  P4694  1  0.47711098  0.63565676  0.37207609  1.0
  P  P4695  1  0.47711098  0.77851391  0.37207609  1.0
  P  P4696  1  0.47711098  0.92137105  0.37207609  1.0
  P  P4697  1  0.58822209  0.06422819  0.37207609  1.0
  P  P4698  1  0.58822209  0.20708533  0.37207609  1.0
  P  P4699  1  0.58822209  0.34994248  0.37207609  1.0
  P  P4700  1  0.58822209  0.49279962  0.37207609  1.0
  P  P4701  1  0.58822209  0.63565676  0.37207609  1.0
  P  P4702  1  0.58822209  0.77851391  0.37207609  1.0
  P  P4703  1  0.58822209  0.92137105  0.37207609  1.0
  P  P4704  1  0.69933320  0.06422819  0.37207609  1.0
  P  P4705  1  0.69933320  0.20708533  0.37207609  1.0
  P  P4706  1  0.69933320  0.34994248  0.37207609  1.0
  P  P4707  1  0.69933320  0.49279962  0.37207609  1.0
  P  P4708  1  0.69933320  0.63565676  0.37207609  1.0
  P  P4709  1  0.69933320  0.77851391  0.37207609  1.0
  P  P4710  1  0.69933320  0.92137105  0.37207609  1.0
  P  P4711  1  0.81044431  0.06422819  0.37207609  1.0
  P  P4712  1  0.81044431  0.20708533  0.37207609  1.0
  P  P4713  1  0.81044431  0.34994248  0.37207609  1.0
  P  P4714  1  0.81044431  0.49279962  0.37207609  1.0
  P  P4715  1  0.81044431  0.63565676  0.37207609  1.0
  P  P4716  1  0.81044431  0.77851391  0.37207609  1.0
  P  P4717  1  0.81044431  0.92137105  0.37207609  1.0
  P  P4718  1  0.92155542  0.06422819  0.37207609  1.0
  P  P4719  1  0.92155542  0.20708533  0.37207609  1.0
  P  P4720  1  0.92155542  0.34994248  0.37207609  1.0
  P  P4721  1  0.92155542  0.49279962  0.37207609  1.0
  P  P4722  1  0.92155542  0.63565676  0.37207609  1.0
  P  P4723  1  0.92155542  0.77851391  0.37207609  1.0
  P  P4724  1  0.92155542  0.92137105  0.37207609  1.0
  P  P4725  1  0.03323636  0.03801377  0.41730092  1.0
  P  P4726  1  0.03323636  0.18087092  0.41730092  1.0
  P  P4727  1  0.03323636  0.32372806  0.41730092  1.0
  P  P4728  1  0.03323636  0.46658520  0.41730092  1.0
  P  P4729  1  0.03323636  0.60944235  0.41730092  1.0
  P  P4730  1  0.03323636  0.75229949  0.41730092  1.0
  P  P4731  1  0.03323636  0.89515663  0.41730092  1.0
  P  P4732  1  0.14434747  0.03801377  0.41730092  1.0
  P  P4733  1  0.14434747  0.18087092  0.41730092  1.0
  P  P4734  1  0.14434747  0.32372806  0.41730092  1.0
  P  P4735  1  0.14434747  0.46658520  0.41730092  1.0
  P  P4736  1  0.14434747  0.60944235  0.41730092  1.0
  P  P4737  1  0.14434747  0.75229949  0.41730092  1.0
  P  P4738  1  0.14434747  0.89515663  0.41730092  1.0
  P  P4739  1  0.25545858  0.03801377  0.41730092  1.0
  P  P4740  1  0.25545858  0.18087092  0.41730092  1.0
  P  P4741  1  0.25545858  0.32372806  0.41730092  1.0
  P  P4742  1  0.25545858  0.46658520  0.41730092  1.0
  P  P4743  1  0.25545858  0.60944235  0.41730092  1.0
  P  P4744  1  0.25545858  0.75229949  0.41730092  1.0
  P  P4745  1  0.25545858  0.89515663  0.41730092  1.0
  P  P4746  1  0.36656969  0.03801377  0.41730092  1.0
  P  P4747  1  0.36656969  0.18087092  0.41730092  1.0
  P  P4748  1  0.36656969  0.32372806  0.41730092  1.0
  P  P4749  1  0.36656969  0.46658520  0.41730092  1.0
  P  P4750  1  0.36656969  0.60944235  0.41730092  1.0
  P  P4751  1  0.36656969  0.75229949  0.41730092  1.0
  P  P4752  1  0.36656969  0.89515663  0.41730092  1.0
  P  P4753  1  0.47768080  0.03801377  0.41730092  1.0
  P  P4754  1  0.47768080  0.18087092  0.41730092  1.0
  P  P4755  1  0.47768080  0.32372806  0.41730092  1.0
  P  P4756  1  0.47768080  0.46658520  0.41730092  1.0
  P  P4757  1  0.47768080  0.60944235  0.41730092  1.0
  P  P4758  1  0.47768080  0.75229949  0.41730092  1.0
  P  P4759  1  0.47768080  0.89515663  0.41730092  1.0
  P  P4760  1  0.58879191  0.03801377  0.41730092  1.0
  P  P4761  1  0.58879191  0.18087092  0.41730092  1.0
  P  P4762  1  0.58879191  0.32372806  0.41730092  1.0
  P  P4763  1  0.58879191  0.46658520  0.41730092  1.0
  P  P4764  1  0.58879191  0.60944235  0.41730092  1.0
  P  P4765  1  0.58879191  0.75229949  0.41730092  1.0
  P  P4766  1  0.58879191  0.89515663  0.41730092  1.0
  P  P4767  1  0.69990303  0.03801377  0.41730092  1.0
  P  P4768  1  0.69990303  0.18087092  0.41730092  1.0
  P  P4769  1  0.69990303  0.32372806  0.41730092  1.0
  P  P4770  1  0.69990303  0.46658520  0.41730092  1.0
  P  P4771  1  0.69990303  0.60944235  0.41730092  1.0
  P  P4772  1  0.69990303  0.75229949  0.41730092  1.0
  P  P4773  1  0.69990303  0.89515663  0.41730092  1.0
  P  P4774  1  0.81101414  0.03801377  0.41730092  1.0
  P  P4775  1  0.81101414  0.18087092  0.41730092  1.0
  P  P4776  1  0.81101414  0.32372806  0.41730092  1.0
  P  P4777  1  0.81101414  0.46658520  0.41730092  1.0
  P  P4778  1  0.81101414  0.60944235  0.41730092  1.0
  P  P4779  1  0.81101414  0.75229949  0.41730092  1.0
  P  P4780  1  0.81101414  0.89515663  0.41730092  1.0
  P  P4781  1  0.92212525  0.03801377  0.41730092  1.0
  P  P4782  1  0.92212525  0.18087092  0.41730092  1.0
  P  P4783  1  0.92212525  0.32372806  0.41730092  1.0
  P  P4784  1  0.92212525  0.46658520  0.41730092  1.0
  P  P4785  1  0.92212525  0.60944235  0.41730092  1.0
  P  P4786  1  0.92212525  0.75229949  0.41730092  1.0
  P  P4787  1  0.92212525  0.89515663  0.41730092  1.0
  P  P4788  1  0.05440038  0.05161922  0.46491997  1.0
  P  P4789  1  0.05440038  0.19447636  0.46491997  1.0
  P  P4790  1  0.05440038  0.33733350  0.46491997  1.0
  P  P4791  1  0.05440038  0.48019065  0.46491997  1.0
  P  P4792  1  0.05440038  0.62304779  0.46491997  1.0
  P  P4793  1  0.05440038  0.76590493  0.46491997  1.0
  P  P4794  1  0.05440038  0.90876207  0.46491997  1.0
  P  P4795  1  0.16551149  0.05161922  0.46491997  1.0
  P  P4796  1  0.16551149  0.19447636  0.46491997  1.0
  P  P4797  1  0.16551149  0.33733350  0.46491997  1.0
  P  P4798  1  0.16551149  0.48019065  0.46491997  1.0
  P  P4799  1  0.16551149  0.62304779  0.46491997  1.0
  P  P4800  1  0.16551149  0.76590493  0.46491997  1.0
  P  P4801  1  0.16551149  0.90876207  0.46491997  1.0
  P  P4802  1  0.27662260  0.05161922  0.46491997  1.0
  P  P4803  1  0.27662260  0.19447636  0.46491997  1.0
  P  P4804  1  0.27662260  0.33733350  0.46491997  1.0
  P  P4805  1  0.27662260  0.48019065  0.46491997  1.0
  P  P4806  1  0.27662260  0.62304779  0.46491997  1.0
  P  P4807  1  0.27662260  0.76590493  0.46491997  1.0
  P  P4808  1  0.27662260  0.90876207  0.46491997  1.0
  P  P4809  1  0.38773371  0.05161922  0.46491997  1.0
  P  P4810  1  0.38773371  0.19447636  0.46491997  1.0
  P  P4811  1  0.38773371  0.33733350  0.46491997  1.0
  P  P4812  1  0.38773371  0.48019065  0.46491997  1.0
  P  P4813  1  0.38773371  0.62304779  0.46491997  1.0
  P  P4814  1  0.38773371  0.76590493  0.46491997  1.0
  P  P4815  1  0.38773371  0.90876207  0.46491997  1.0
  P  P4816  1  0.49884482  0.05161922  0.46491997  1.0
  P  P4817  1  0.49884482  0.19447636  0.46491997  1.0
  P  P4818  1  0.49884482  0.33733350  0.46491997  1.0
  P  P4819  1  0.49884482  0.48019065  0.46491997  1.0
  P  P4820  1  0.49884482  0.62304779  0.46491997  1.0
  P  P4821  1  0.49884482  0.76590493  0.46491997  1.0
  P  P4822  1  0.49884482  0.90876207  0.46491997  1.0
  P  P4823  1  0.60995594  0.05161922  0.46491997  1.0
  P  P4824  1  0.60995594  0.19447636  0.46491997  1.0
  P  P4825  1  0.60995594  0.33733350  0.46491997  1.0
  P  P4826  1  0.60995594  0.48019065  0.46491997  1.0
  P  P4827  1  0.60995594  0.62304779  0.46491997  1.0
  P  P4828  1  0.60995594  0.76590493  0.46491997  1.0
  P  P4829  1  0.60995594  0.90876207  0.46491997  1.0
  P  P4830  1  0.72106705  0.05161922  0.46491997  1.0
  P  P4831  1  0.72106705  0.19447636  0.46491997  1.0
  P  P4832  1  0.72106705  0.33733350  0.46491997  1.0
  P  P4833  1  0.72106705  0.48019065  0.46491997  1.0
  P  P4834  1  0.72106705  0.62304779  0.46491997  1.0
  P  P4835  1  0.72106705  0.76590493  0.46491997  1.0
  P  P4836  1  0.72106705  0.90876207  0.46491997  1.0
  P  P4837  1  0.83217816  0.05161922  0.46491997  1.0
  P  P4838  1  0.83217816  0.19447636  0.46491997  1.0
  P  P4839  1  0.83217816  0.33733350  0.46491997  1.0
  P  P4840  1  0.83217816  0.48019065  0.46491997  1.0
  P  P4841  1  0.83217816  0.62304779  0.46491997  1.0
  P  P4842  1  0.83217816  0.76590493  0.46491997  1.0
  P  P4843  1  0.83217816  0.90876207  0.46491997  1.0
  P  P4844  1  0.94328927  0.05161922  0.46491997  1.0
  P  P4845  1  0.94328927  0.19447636  0.46491997  1.0
  P  P4846  1  0.94328927  0.33733350  0.46491997  1.0
  P  P4847  1  0.94328927  0.48019065  0.46491997  1.0
  P  P4848  1  0.94328927  0.62304779  0.46491997  1.0
  P  P4849  1  0.94328927  0.76590493  0.46491997  1.0
  P  P4850  1  0.94328927  0.90876207  0.46491997  1.0
  P  P4851  1  0.01207234  0.02440833  0.36968187  1.0
  P  P4852  1  0.01207234  0.16726548  0.36968187  1.0
  P  P4853  1  0.01207234  0.31012262  0.36968187  1.0
  P  P4854  1  0.01207234  0.45297976  0.36968187  1.0
  P  P4855  1  0.01207234  0.59583690  0.36968187  1.0
  P  P4856  1  0.01207234  0.73869405  0.36968187  1.0
  P  P4857  1  0.01207234  0.88155119  0.36968187  1.0
  P  P4858  1  0.12318345  0.02440833  0.36968187  1.0
  P  P4859  1  0.12318345  0.16726548  0.36968187  1.0
  P  P4860  1  0.12318345  0.31012262  0.36968187  1.0
  P  P4861  1  0.12318345  0.45297976  0.36968187  1.0
  P  P4862  1  0.12318345  0.59583690  0.36968187  1.0
  P  P4863  1  0.12318345  0.73869405  0.36968187  1.0
  P  P4864  1  0.12318345  0.88155119  0.36968187  1.0
  P  P4865  1  0.23429456  0.02440833  0.36968187  1.0
  P  P4866  1  0.23429456  0.16726548  0.36968187  1.0
  P  P4867  1  0.23429456  0.31012262  0.36968187  1.0
  P  P4868  1  0.23429456  0.45297976  0.36968187  1.0
  P  P4869  1  0.23429456  0.59583690  0.36968187  1.0
  P  P4870  1  0.23429456  0.73869405  0.36968187  1.0
  P  P4871  1  0.23429456  0.88155119  0.36968187  1.0
  P  P4872  1  0.34540567  0.02440833  0.36968187  1.0
  P  P4873  1  0.34540567  0.16726548  0.36968187  1.0
  P  P4874  1  0.34540567  0.31012262  0.36968187  1.0
  P  P4875  1  0.34540567  0.45297976  0.36968187  1.0
  P  P4876  1  0.34540567  0.59583690  0.36968187  1.0
  P  P4877  1  0.34540567  0.73869405  0.36968187  1.0
  P  P4878  1  0.34540567  0.88155119  0.36968187  1.0
  P  P4879  1  0.45651678  0.02440833  0.36968187  1.0
  P  P4880  1  0.45651678  0.16726548  0.36968187  1.0
  P  P4881  1  0.45651678  0.31012262  0.36968187  1.0
  P  P4882  1  0.45651678  0.45297976  0.36968187  1.0
  P  P4883  1  0.45651678  0.59583690  0.36968187  1.0
  P  P4884  1  0.45651678  0.73869405  0.36968187  1.0
  P  P4885  1  0.45651678  0.88155119  0.36968187  1.0
  P  P4886  1  0.56762789  0.02440833  0.36968187  1.0
  P  P4887  1  0.56762789  0.16726548  0.36968187  1.0
  P  P4888  1  0.56762789  0.31012262  0.36968187  1.0
  P  P4889  1  0.56762789  0.45297976  0.36968187  1.0
  P  P4890  1  0.56762789  0.59583690  0.36968187  1.0
  P  P4891  1  0.56762789  0.73869405  0.36968187  1.0
  P  P4892  1  0.56762789  0.88155119  0.36968187  1.0
  P  P4893  1  0.67873900  0.02440833  0.36968187  1.0
  P  P4894  1  0.67873900  0.16726548  0.36968187  1.0
  P  P4895  1  0.67873900  0.31012262  0.36968187  1.0
  P  P4896  1  0.67873900  0.45297976  0.36968187  1.0
  P  P4897  1  0.67873900  0.59583690  0.36968187  1.0
  P  P4898  1  0.67873900  0.73869405  0.36968187  1.0
  P  P4899  1  0.67873900  0.88155119  0.36968187  1.0
  P  P4900  1  0.78985012  0.02440833  0.36968187  1.0
  P  P4901  1  0.78985012  0.16726548  0.36968187  1.0
  P  P4902  1  0.78985012  0.31012262  0.36968187  1.0
  P  P4903  1  0.78985012  0.45297976  0.36968187  1.0
  P  P4904  1  0.78985012  0.59583690  0.36968187  1.0
  P  P4905  1  0.78985012  0.73869405  0.36968187  1.0
  P  P4906  1  0.78985012  0.88155119  0.36968187  1.0
  P  P4907  1  0.90096123  0.02440833  0.36968187  1.0
  P  P4908  1  0.90096123  0.16726548  0.36968187  1.0
  P  P4909  1  0.90096123  0.31012262  0.36968187  1.0
  P  P4910  1  0.90096123  0.45297976  0.36968187  1.0
  P  P4911  1  0.90096123  0.59583690  0.36968187  1.0
  P  P4912  1  0.90096123  0.73869405  0.36968187  1.0
  P  P4913  1  0.90096123  0.88155119  0.36968187  1.0
  P  P4914  1  0.00407289  0.11385363  0.43274040  1.0
  P  P4915  1  0.00407289  0.25671077  0.43274040  1.0
  P  P4916  1  0.00407289  0.39956791  0.43274040  1.0
  P  P4917  1  0.00407289  0.54242506  0.43274040  1.0
  P  P4918  1  0.00407289  0.68528220  0.43274040  1.0
  P  P4919  1  0.00407289  0.82813934  0.43274040  1.0
  P  P4920  1  0.00407289  0.97099648  0.43274040  1.0
  P  P4921  1  0.11518400  0.11385363  0.43274040  1.0
  P  P4922  1  0.11518400  0.25671077  0.43274040  1.0
  P  P4923  1  0.11518400  0.39956791  0.43274040  1.0
  P  P4924  1  0.11518400  0.54242506  0.43274040  1.0
  P  P4925  1  0.11518400  0.68528220  0.43274040  1.0
  P  P4926  1  0.11518400  0.82813934  0.43274040  1.0
  P  P4927  1  0.11518400  0.97099648  0.43274040  1.0
  P  P4928  1  0.22629512  0.11385363  0.43274040  1.0
  P  P4929  1  0.22629512  0.25671077  0.43274040  1.0
  P  P4930  1  0.22629512  0.39956791  0.43274040  1.0
  P  P4931  1  0.22629512  0.54242506  0.43274040  1.0
  P  P4932  1  0.22629512  0.68528220  0.43274040  1.0
  P  P4933  1  0.22629512  0.82813934  0.43274040  1.0
  P  P4934  1  0.22629512  0.97099648  0.43274040  1.0
  P  P4935  1  0.33740623  0.11385363  0.43274040  1.0
  P  P4936  1  0.33740623  0.25671077  0.43274040  1.0
  P  P4937  1  0.33740623  0.39956791  0.43274040  1.0
  P  P4938  1  0.33740623  0.54242506  0.43274040  1.0
  P  P4939  1  0.33740623  0.68528220  0.43274040  1.0
  P  P4940  1  0.33740623  0.82813934  0.43274040  1.0
  P  P4941  1  0.33740623  0.97099648  0.43274040  1.0
  P  P4942  1  0.44851734  0.11385363  0.43274040  1.0
  P  P4943  1  0.44851734  0.25671077  0.43274040  1.0
  P  P4944  1  0.44851734  0.39956791  0.43274040  1.0
  P  P4945  1  0.44851734  0.54242506  0.43274040  1.0
  P  P4946  1  0.44851734  0.68528220  0.43274040  1.0
  P  P4947  1  0.44851734  0.82813934  0.43274040  1.0
  P  P4948  1  0.44851734  0.97099648  0.43274040  1.0
  P  P4949  1  0.55962845  0.11385363  0.43274040  1.0
  P  P4950  1  0.55962845  0.25671077  0.43274040  1.0
  P  P4951  1  0.55962845  0.39956791  0.43274040  1.0
  P  P4952  1  0.55962845  0.54242506  0.43274040  1.0
  P  P4953  1  0.55962845  0.68528220  0.43274040  1.0
  P  P4954  1  0.55962845  0.82813934  0.43274040  1.0
  P  P4955  1  0.55962845  0.97099648  0.43274040  1.0
  P  P4956  1  0.67073956  0.11385363  0.43274040  1.0
  P  P4957  1  0.67073956  0.25671077  0.43274040  1.0
  P  P4958  1  0.67073956  0.39956791  0.43274040  1.0
  P  P4959  1  0.67073956  0.54242506  0.43274040  1.0
  P  P4960  1  0.67073956  0.68528220  0.43274040  1.0
  P  P4961  1  0.67073956  0.82813934  0.43274040  1.0
  P  P4962  1  0.67073956  0.97099648  0.43274040  1.0
  P  P4963  1  0.78185067  0.11385363  0.43274040  1.0
  P  P4964  1  0.78185067  0.25671077  0.43274040  1.0
  P  P4965  1  0.78185067  0.39956791  0.43274040  1.0
  P  P4966  1  0.78185067  0.54242506  0.43274040  1.0
  P  P4967  1  0.78185067  0.68528220  0.43274040  1.0
  P  P4968  1  0.78185067  0.82813934  0.43274040  1.0
  P  P4969  1  0.78185067  0.97099648  0.43274040  1.0
  P  P4970  1  0.89296178  0.11385363  0.43274040  1.0
  P  P4971  1  0.89296178  0.25671077  0.43274040  1.0
  P  P4972  1  0.89296178  0.39956791  0.43274040  1.0
  P  P4973  1  0.89296178  0.54242506  0.43274040  1.0
  P  P4974  1  0.89296178  0.68528220  0.43274040  1.0
  P  P4975  1  0.89296178  0.82813934  0.43274040  1.0
  P  P4976  1  0.89296178  0.97099648  0.43274040  1.0
  P  P4977  1  0.02523691  0.12745907  0.48035945  1.0
  P  P4978  1  0.02523691  0.27031621  0.48035945  1.0
  P  P4979  1  0.02523691  0.41317335  0.48035945  1.0
  P  P4980  1  0.02523691  0.55603050  0.48035945  1.0
  P  P4981  1  0.02523691  0.69888764  0.48035945  1.0
  P  P4982  1  0.02523691  0.84174478  0.48035945  1.0
  P  P4983  1  0.02523691  0.98460193  0.48035945  1.0
  P  P4984  1  0.13634803  0.12745907  0.48035945  1.0
  P  P4985  1  0.13634803  0.27031621  0.48035945  1.0
  P  P4986  1  0.13634803  0.41317335  0.48035945  1.0
  P  P4987  1  0.13634803  0.55603050  0.48035945  1.0
  P  P4988  1  0.13634803  0.69888764  0.48035945  1.0
  P  P4989  1  0.13634803  0.84174478  0.48035945  1.0
  P  P4990  1  0.13634803  0.98460193  0.48035945  1.0
  P  P4991  1  0.24745914  0.12745907  0.48035945  1.0
  P  P4992  1  0.24745914  0.27031621  0.48035945  1.0
  P  P4993  1  0.24745914  0.41317335  0.48035945  1.0
  P  P4994  1  0.24745914  0.55603050  0.48035945  1.0
  P  P4995  1  0.24745914  0.69888764  0.48035945  1.0
  P  P4996  1  0.24745914  0.84174478  0.48035945  1.0
  P  P4997  1  0.24745914  0.98460193  0.48035945  1.0
  P  P4998  1  0.35857025  0.12745907  0.48035945  1.0
  P  P4999  1  0.35857025  0.27031621  0.48035945  1.0
  P  P5000  1  0.35857025  0.41317335  0.48035945  1.0
  P  P5001  1  0.35857025  0.55603050  0.48035945  1.0
  P  P5002  1  0.35857025  0.69888764  0.48035945  1.0
  P  P5003  1  0.35857025  0.84174478  0.48035945  1.0
  P  P5004  1  0.35857025  0.98460193  0.48035945  1.0
  P  P5005  1  0.46968136  0.12745907  0.48035945  1.0
  P  P5006  1  0.46968136  0.27031621  0.48035945  1.0
  P  P5007  1  0.46968136  0.41317335  0.48035945  1.0
  P  P5008  1  0.46968136  0.55603050  0.48035945  1.0
  P  P5009  1  0.46968136  0.69888764  0.48035945  1.0
  P  P5010  1  0.46968136  0.84174478  0.48035945  1.0
  P  P5011  1  0.46968136  0.98460193  0.48035945  1.0
  P  P5012  1  0.58079247  0.12745907  0.48035945  1.0
  P  P5013  1  0.58079247  0.27031621  0.48035945  1.0
  P  P5014  1  0.58079247  0.41317335  0.48035945  1.0
  P  P5015  1  0.58079247  0.55603050  0.48035945  1.0
  P  P5016  1  0.58079247  0.69888764  0.48035945  1.0
  P  P5017  1  0.58079247  0.84174478  0.48035945  1.0
  P  P5018  1  0.58079247  0.98460193  0.48035945  1.0
  P  P5019  1  0.69190358  0.12745907  0.48035945  1.0
  P  P5020  1  0.69190358  0.27031621  0.48035945  1.0
  P  P5021  1  0.69190358  0.41317335  0.48035945  1.0
  P  P5022  1  0.69190358  0.55603050  0.48035945  1.0
  P  P5023  1  0.69190358  0.69888764  0.48035945  1.0
  P  P5024  1  0.69190358  0.84174478  0.48035945  1.0
  P  P5025  1  0.69190358  0.98460193  0.48035945  1.0
  P  P5026  1  0.80301469  0.12745907  0.48035945  1.0
  P  P5027  1  0.80301469  0.27031621  0.48035945  1.0
  P  P5028  1  0.80301469  0.41317335  0.48035945  1.0
  P  P5029  1  0.80301469  0.55603050  0.48035945  1.0
  P  P5030  1  0.80301469  0.69888764  0.48035945  1.0
  P  P5031  1  0.80301469  0.84174478  0.48035945  1.0
  P  P5032  1  0.80301469  0.98460193  0.48035945  1.0
  P  P5033  1  0.91412580  0.12745907  0.48035945  1.0
  P  P5034  1  0.91412580  0.27031621  0.48035945  1.0
  P  P5035  1  0.91412580  0.41317335  0.48035945  1.0
  P  P5036  1  0.91412580  0.55603050  0.48035945  1.0
  P  P5037  1  0.91412580  0.69888764  0.48035945  1.0
  P  P5038  1  0.91412580  0.84174478  0.48035945  1.0
  P  P5039  1  0.91412580  0.98460193  0.48035945  1.0
  P  P5040  1  0.09401998  0.10024818  0.38512135  1.0
  P  P5041  1  0.09401998  0.24310533  0.38512135  1.0
  P  P5042  1  0.09401998  0.38596247  0.38512135  1.0
  P  P5043  1  0.09401998  0.52881961  0.38512135  1.0
  P  P5044  1  0.09401998  0.67167676  0.38512135  1.0
  P  P5045  1  0.09401998  0.81453390  0.38512135  1.0
  P  P5046  1  0.09401998  0.95739104  0.38512135  1.0
  P  P5047  1  0.20513109  0.10024818  0.38512135  1.0
  P  P5048  1  0.20513109  0.24310533  0.38512135  1.0
  P  P5049  1  0.20513109  0.38596247  0.38512135  1.0
  P  P5050  1  0.20513109  0.52881961  0.38512135  1.0
  P  P5051  1  0.20513109  0.67167676  0.38512135  1.0
  P  P5052  1  0.20513109  0.81453390  0.38512135  1.0
  P  P5053  1  0.20513109  0.95739104  0.38512135  1.0
  P  P5054  1  0.31624221  0.10024818  0.38512135  1.0
  P  P5055  1  0.31624221  0.24310533  0.38512135  1.0
  P  P5056  1  0.31624221  0.38596247  0.38512135  1.0
  P  P5057  1  0.31624221  0.52881961  0.38512135  1.0
  P  P5058  1  0.31624221  0.67167676  0.38512135  1.0
  P  P5059  1  0.31624221  0.81453390  0.38512135  1.0
  P  P5060  1  0.31624221  0.95739104  0.38512135  1.0
  P  P5061  1  0.42735332  0.10024818  0.38512135  1.0
  P  P5062  1  0.42735332  0.24310533  0.38512135  1.0
  P  P5063  1  0.42735332  0.38596247  0.38512135  1.0
  P  P5064  1  0.42735332  0.52881961  0.38512135  1.0
  P  P5065  1  0.42735332  0.67167676  0.38512135  1.0
  P  P5066  1  0.42735332  0.81453390  0.38512135  1.0
  P  P5067  1  0.42735332  0.95739104  0.38512135  1.0
  P  P5068  1  0.53846443  0.10024818  0.38512135  1.0
  P  P5069  1  0.53846443  0.24310533  0.38512135  1.0
  P  P5070  1  0.53846443  0.38596247  0.38512135  1.0
  P  P5071  1  0.53846443  0.52881961  0.38512135  1.0
  P  P5072  1  0.53846443  0.67167676  0.38512135  1.0
  P  P5073  1  0.53846443  0.81453390  0.38512135  1.0
  P  P5074  1  0.53846443  0.95739104  0.38512135  1.0
  P  P5075  1  0.64957554  0.10024818  0.38512135  1.0
  P  P5076  1  0.64957554  0.24310533  0.38512135  1.0
  P  P5077  1  0.64957554  0.38596247  0.38512135  1.0
  P  P5078  1  0.64957554  0.52881961  0.38512135  1.0
  P  P5079  1  0.64957554  0.67167676  0.38512135  1.0
  P  P5080  1  0.64957554  0.81453390  0.38512135  1.0
  P  P5081  1  0.64957554  0.95739104  0.38512135  1.0
  P  P5082  1  0.76068665  0.10024818  0.38512135  1.0
  P  P5083  1  0.76068665  0.24310533  0.38512135  1.0
  P  P5084  1  0.76068665  0.38596247  0.38512135  1.0
  P  P5085  1  0.76068665  0.52881961  0.38512135  1.0
  P  P5086  1  0.76068665  0.67167676  0.38512135  1.0
  P  P5087  1  0.76068665  0.81453390  0.38512135  1.0
  P  P5088  1  0.76068665  0.95739104  0.38512135  1.0
  P  P5089  1  0.87179776  0.10024818  0.38512135  1.0
  P  P5090  1  0.87179776  0.24310533  0.38512135  1.0
  P  P5091  1  0.87179776  0.38596247  0.38512135  1.0
  P  P5092  1  0.87179776  0.52881961  0.38512135  1.0
  P  P5093  1  0.87179776  0.67167676  0.38512135  1.0
  P  P5094  1  0.87179776  0.81453390  0.38512135  1.0
  P  P5095  1  0.87179776  0.95739104  0.38512135  1.0
  P  P5096  1  0.98290887  0.10024818  0.38512135  1.0
  P  P5097  1  0.98290887  0.24310533  0.38512135  1.0
  P  P5098  1  0.98290887  0.38596247  0.38512135  1.0
  P  P5099  1  0.98290887  0.52881961  0.38512135  1.0
  P  P5100  1  0.98290887  0.67167676  0.38512135  1.0
  P  P5101  1  0.98290887  0.81453390  0.38512135  1.0
  P  P5102  1  0.98290887  0.95739104  0.38512135  1.0
  P  P5103  1  0.08299402  0.00199378  0.40425565  1.0
  P  P5104  1  0.08299402  0.14485092  0.40425565  1.0
  P  P5105  1  0.08299402  0.28770807  0.40425565  1.0
  P  P5106  1  0.08299402  0.43056521  0.40425565  1.0
  P  P5107  1  0.08299402  0.57342235  0.40425565  1.0
  P  P5108  1  0.08299402  0.71627950  0.40425565  1.0
  P  P5109  1  0.08299402  0.85913664  0.40425565  1.0
  P  P5110  1  0.19410513  0.00199378  0.40425565  1.0
  P  P5111  1  0.19410513  0.14485092  0.40425565  1.0
  P  P5112  1  0.19410513  0.28770807  0.40425565  1.0
  P  P5113  1  0.19410513  0.43056521  0.40425565  1.0
  P  P5114  1  0.19410513  0.57342235  0.40425565  1.0
  P  P5115  1  0.19410513  0.71627950  0.40425565  1.0
  P  P5116  1  0.19410513  0.85913664  0.40425565  1.0
  P  P5117  1  0.30521624  0.00199378  0.40425565  1.0
  P  P5118  1  0.30521624  0.14485092  0.40425565  1.0
  P  P5119  1  0.30521624  0.28770807  0.40425565  1.0
  P  P5120  1  0.30521624  0.43056521  0.40425565  1.0
  P  P5121  1  0.30521624  0.57342235  0.40425565  1.0
  P  P5122  1  0.30521624  0.71627950  0.40425565  1.0
  P  P5123  1  0.30521624  0.85913664  0.40425565  1.0
  P  P5124  1  0.41632735  0.00199378  0.40425565  1.0
  P  P5125  1  0.41632735  0.14485092  0.40425565  1.0
  P  P5126  1  0.41632735  0.28770807  0.40425565  1.0
  P  P5127  1  0.41632735  0.43056521  0.40425565  1.0
  P  P5128  1  0.41632735  0.57342235  0.40425565  1.0
  P  P5129  1  0.41632735  0.71627950  0.40425565  1.0
  P  P5130  1  0.41632735  0.85913664  0.40425565  1.0
  P  P5131  1  0.52743846  0.00199378  0.40425565  1.0
  P  P5132  1  0.52743846  0.14485092  0.40425565  1.0
  P  P5133  1  0.52743846  0.28770807  0.40425565  1.0
  P  P5134  1  0.52743846  0.43056521  0.40425565  1.0
  P  P5135  1  0.52743846  0.57342235  0.40425565  1.0
  P  P5136  1  0.52743846  0.71627950  0.40425565  1.0
  P  P5137  1  0.52743846  0.85913664  0.40425565  1.0
  P  P5138  1  0.63854957  0.00199378  0.40425565  1.0
  P  P5139  1  0.63854957  0.14485092  0.40425565  1.0
  P  P5140  1  0.63854957  0.28770807  0.40425565  1.0
  P  P5141  1  0.63854957  0.43056521  0.40425565  1.0
  P  P5142  1  0.63854957  0.57342235  0.40425565  1.0
  P  P5143  1  0.63854957  0.71627950  0.40425565  1.0
  P  P5144  1  0.63854957  0.85913664  0.40425565  1.0
  P  P5145  1  0.74966069  0.00199378  0.40425565  1.0
  P  P5146  1  0.74966069  0.14485092  0.40425565  1.0
  P  P5147  1  0.74966069  0.28770807  0.40425565  1.0
  P  P5148  1  0.74966069  0.43056521  0.40425565  1.0
  P  P5149  1  0.74966069  0.57342235  0.40425565  1.0
  P  P5150  1  0.74966069  0.71627950  0.40425565  1.0
  P  P5151  1  0.74966069  0.85913664  0.40425565  1.0
  P  P5152  1  0.86077180  0.00199378  0.40425565  1.0
  P  P5153  1  0.86077180  0.14485092  0.40425565  1.0
  P  P5154  1  0.86077180  0.28770807  0.40425565  1.0
  P  P5155  1  0.86077180  0.43056521  0.40425565  1.0
  P  P5156  1  0.86077180  0.57342235  0.40425565  1.0
  P  P5157  1  0.86077180  0.71627950  0.40425565  1.0
  P  P5158  1  0.86077180  0.85913664  0.40425565  1.0
  P  P5159  1  0.97188291  0.00199378  0.40425565  1.0
  P  P5160  1  0.97188291  0.14485092  0.40425565  1.0
  P  P5161  1  0.97188291  0.28770807  0.40425565  1.0
  P  P5162  1  0.97188291  0.43056521  0.40425565  1.0
  P  P5163  1  0.97188291  0.57342235  0.40425565  1.0
  P  P5164  1  0.97188291  0.71627950  0.40425565  1.0
  P  P5165  1  0.97188291  0.85913664  0.40425565  1.0
  P  P5166  1  0.10415804  0.01559922  0.45187470  1.0
  P  P5167  1  0.10415804  0.15845637  0.45187470  1.0
  P  P5168  1  0.10415804  0.30131351  0.45187470  1.0
  P  P5169  1  0.10415804  0.44417065  0.45187470  1.0
  P  P5170  1  0.10415804  0.58702780  0.45187470  1.0
  P  P5171  1  0.10415804  0.72988494  0.45187470  1.0
  P  P5172  1  0.10415804  0.87274208  0.45187470  1.0
  P  P5173  1  0.21526915  0.01559922  0.45187470  1.0
  P  P5174  1  0.21526915  0.15845637  0.45187470  1.0
  P  P5175  1  0.21526915  0.30131351  0.45187470  1.0
  P  P5176  1  0.21526915  0.44417065  0.45187470  1.0
  P  P5177  1  0.21526915  0.58702780  0.45187470  1.0
  P  P5178  1  0.21526915  0.72988494  0.45187470  1.0
  P  P5179  1  0.21526915  0.87274208  0.45187470  1.0
  P  P5180  1  0.32638026  0.01559922  0.45187470  1.0
  P  P5181  1  0.32638026  0.15845637  0.45187470  1.0
  P  P5182  1  0.32638026  0.30131351  0.45187470  1.0
  P  P5183  1  0.32638026  0.44417065  0.45187470  1.0
  P  P5184  1  0.32638026  0.58702780  0.45187470  1.0
  P  P5185  1  0.32638026  0.72988494  0.45187470  1.0
  P  P5186  1  0.32638026  0.87274208  0.45187470  1.0
  P  P5187  1  0.43749137  0.01559922  0.45187470  1.0
  P  P5188  1  0.43749137  0.15845637  0.45187470  1.0
  P  P5189  1  0.43749137  0.30131351  0.45187470  1.0
  P  P5190  1  0.43749137  0.44417065  0.45187470  1.0
  P  P5191  1  0.43749137  0.58702780  0.45187470  1.0
  P  P5192  1  0.43749137  0.72988494  0.45187470  1.0
  P  P5193  1  0.43749137  0.87274208  0.45187470  1.0
  P  P5194  1  0.54860248  0.01559922  0.45187470  1.0
  P  P5195  1  0.54860248  0.15845637  0.45187470  1.0
  P  P5196  1  0.54860248  0.30131351  0.45187470  1.0
  P  P5197  1  0.54860248  0.44417065  0.45187470  1.0
  P  P5198  1  0.54860248  0.58702780  0.45187470  1.0
  P  P5199  1  0.54860248  0.72988494  0.45187470  1.0
  P  P5200  1  0.54860248  0.87274208  0.45187470  1.0
  P  P5201  1  0.65971360  0.01559922  0.45187470  1.0
  P  P5202  1  0.65971360  0.15845637  0.45187470  1.0
  P  P5203  1  0.65971360  0.30131351  0.45187470  1.0
  P  P5204  1  0.65971360  0.44417065  0.45187470  1.0
  P  P5205  1  0.65971360  0.58702780  0.45187470  1.0
  P  P5206  1  0.65971360  0.72988494  0.45187470  1.0
  P  P5207  1  0.65971360  0.87274208  0.45187470  1.0
  P  P5208  1  0.77082471  0.01559922  0.45187470  1.0
  P  P5209  1  0.77082471  0.15845637  0.45187470  1.0
  P  P5210  1  0.77082471  0.30131351  0.45187470  1.0
  P  P5211  1  0.77082471  0.44417065  0.45187470  1.0
  P  P5212  1  0.77082471  0.58702780  0.45187470  1.0
  P  P5213  1  0.77082471  0.72988494  0.45187470  1.0
  P  P5214  1  0.77082471  0.87274208  0.45187470  1.0
  P  P5215  1  0.88193582  0.01559922  0.45187470  1.0
  P  P5216  1  0.88193582  0.15845637  0.45187470  1.0
  P  P5217  1  0.88193582  0.30131351  0.45187470  1.0
  P  P5218  1  0.88193582  0.44417065  0.45187470  1.0
  P  P5219  1  0.88193582  0.58702780  0.45187470  1.0
  P  P5220  1  0.88193582  0.72988494  0.45187470  1.0
  P  P5221  1  0.88193582  0.87274208  0.45187470  1.0
  P  P5222  1  0.99304693  0.01559922  0.45187470  1.0
  P  P5223  1  0.99304693  0.15845637  0.45187470  1.0
  P  P5224  1  0.99304693  0.30131351  0.45187470  1.0
  P  P5225  1  0.99304693  0.44417065  0.45187470  1.0
  P  P5226  1  0.99304693  0.58702780  0.45187470  1.0
  P  P5227  1  0.99304693  0.72988494  0.45187470  1.0
  P  P5228  1  0.99304693  0.87274208  0.45187470  1.0
  P  P5229  1  0.01421095  0.02920467  0.49949375  1.0
  P  P5230  1  0.01421095  0.17206181  0.49949375  1.0
  P  P5231  1  0.01421095  0.31491895  0.49949375  1.0
  P  P5232  1  0.01421095  0.45777609  0.49949375  1.0
  P  P5233  1  0.01421095  0.60063324  0.49949375  1.0
  P  P5234  1  0.01421095  0.74349038  0.49949375  1.0
  P  P5235  1  0.01421095  0.88634752  0.49949375  1.0
  P  P5236  1  0.12532206  0.02920467  0.49949375  1.0
  P  P5237  1  0.12532206  0.17206181  0.49949375  1.0
  P  P5238  1  0.12532206  0.31491895  0.49949375  1.0
  P  P5239  1  0.12532206  0.45777609  0.49949375  1.0
  P  P5240  1  0.12532206  0.60063324  0.49949375  1.0
  P  P5241  1  0.12532206  0.74349038  0.49949375  1.0
  P  P5242  1  0.12532206  0.88634752  0.49949375  1.0
  P  P5243  1  0.23643317  0.02920467  0.49949375  1.0
  P  P5244  1  0.23643317  0.17206181  0.49949375  1.0
  P  P5245  1  0.23643317  0.31491895  0.49949375  1.0
  P  P5246  1  0.23643317  0.45777609  0.49949375  1.0
  P  P5247  1  0.23643317  0.60063324  0.49949375  1.0
  P  P5248  1  0.23643317  0.74349038  0.49949375  1.0
  P  P5249  1  0.23643317  0.88634752  0.49949375  1.0
  P  P5250  1  0.34754428  0.02920467  0.49949375  1.0
  P  P5251  1  0.34754428  0.17206181  0.49949375  1.0
  P  P5252  1  0.34754428  0.31491895  0.49949375  1.0
  P  P5253  1  0.34754428  0.45777609  0.49949375  1.0
  P  P5254  1  0.34754428  0.60063324  0.49949375  1.0
  P  P5255  1  0.34754428  0.74349038  0.49949375  1.0
  P  P5256  1  0.34754428  0.88634752  0.49949375  1.0
  P  P5257  1  0.45865539  0.02920467  0.49949375  1.0
  P  P5258  1  0.45865539  0.17206181  0.49949375  1.0
  P  P5259  1  0.45865539  0.31491895  0.49949375  1.0
  P  P5260  1  0.45865539  0.45777609  0.49949375  1.0
  P  P5261  1  0.45865539  0.60063324  0.49949375  1.0
  P  P5262  1  0.45865539  0.74349038  0.49949375  1.0
  P  P5263  1  0.45865539  0.88634752  0.49949375  1.0
  P  P5264  1  0.56976651  0.02920467  0.49949375  1.0
  P  P5265  1  0.56976651  0.17206181  0.49949375  1.0
  P  P5266  1  0.56976651  0.31491895  0.49949375  1.0
  P  P5267  1  0.56976651  0.45777609  0.49949375  1.0
  P  P5268  1  0.56976651  0.60063324  0.49949375  1.0
  P  P5269  1  0.56976651  0.74349038  0.49949375  1.0
  P  P5270  1  0.56976651  0.88634752  0.49949375  1.0
  P  P5271  1  0.68087762  0.02920467  0.49949375  1.0
  P  P5272  1  0.68087762  0.17206181  0.49949375  1.0
  P  P5273  1  0.68087762  0.31491895  0.49949375  1.0
  P  P5274  1  0.68087762  0.45777609  0.49949375  1.0
  P  P5275  1  0.68087762  0.60063324  0.49949375  1.0
  P  P5276  1  0.68087762  0.74349038  0.49949375  1.0
  P  P5277  1  0.68087762  0.88634752  0.49949375  1.0
  P  P5278  1  0.79198873  0.02920467  0.49949375  1.0
  P  P5279  1  0.79198873  0.17206181  0.49949375  1.0
  P  P5280  1  0.79198873  0.31491895  0.49949375  1.0
  P  P5281  1  0.79198873  0.45777609  0.49949375  1.0
  P  P5282  1  0.79198873  0.60063324  0.49949375  1.0
  P  P5283  1  0.79198873  0.74349038  0.49949375  1.0
  P  P5284  1  0.79198873  0.88634752  0.49949375  1.0
  P  P5285  1  0.90309984  0.02920467  0.49949375  1.0
  P  P5286  1  0.90309984  0.17206181  0.49949375  1.0
  P  P5287  1  0.90309984  0.31491895  0.49949375  1.0
  P  P5288  1  0.90309984  0.45777609  0.49949375  1.0
  P  P5289  1  0.90309984  0.60063324  0.49949375  1.0
  P  P5290  1  0.90309984  0.74349038  0.49949375  1.0
  P  P5291  1  0.90309984  0.88634752  0.49949375  1.0
  P  P5292  1  0.09272257  0.06808579  0.43424225  1.0
  P  P5293  1  0.09272257  0.21094294  0.43424225  1.0
  P  P5294  1  0.09272257  0.35380008  0.43424225  1.0
  P  P5295  1  0.09272257  0.49665722  0.43424225  1.0
  P  P5296  1  0.09272257  0.63951436  0.43424225  1.0
  P  P5297  1  0.09272257  0.78237151  0.43424225  1.0
  P  P5298  1  0.09272257  0.92522865  0.43424225  1.0
  P  P5299  1  0.20383368  0.06808579  0.43424225  1.0
  P  P5300  1  0.20383368  0.21094294  0.43424225  1.0
  P  P5301  1  0.20383368  0.35380008  0.43424225  1.0
  P  P5302  1  0.20383368  0.49665722  0.43424225  1.0
  P  P5303  1  0.20383368  0.63951436  0.43424225  1.0
  P  P5304  1  0.20383368  0.78237151  0.43424225  1.0
  P  P5305  1  0.20383368  0.92522865  0.43424225  1.0
  P  P5306  1  0.31494479  0.06808579  0.43424225  1.0
  P  P5307  1  0.31494479  0.21094294  0.43424225  1.0
  P  P5308  1  0.31494479  0.35380008  0.43424225  1.0
  P  P5309  1  0.31494479  0.49665722  0.43424225  1.0
  P  P5310  1  0.31494479  0.63951436  0.43424225  1.0
  P  P5311  1  0.31494479  0.78237151  0.43424225  1.0
  P  P5312  1  0.31494479  0.92522865  0.43424225  1.0
  P  P5313  1  0.42605590  0.06808579  0.43424225  1.0
  P  P5314  1  0.42605590  0.21094294  0.43424225  1.0
  P  P5315  1  0.42605590  0.35380008  0.43424225  1.0
  P  P5316  1  0.42605590  0.49665722  0.43424225  1.0
  P  P5317  1  0.42605590  0.63951436  0.43424225  1.0
  P  P5318  1  0.42605590  0.78237151  0.43424225  1.0
  P  P5319  1  0.42605590  0.92522865  0.43424225  1.0
  P  P5320  1  0.53716701  0.06808579  0.43424225  1.0
  P  P5321  1  0.53716701  0.21094294  0.43424225  1.0
  P  P5322  1  0.53716701  0.35380008  0.43424225  1.0
  P  P5323  1  0.53716701  0.49665722  0.43424225  1.0
  P  P5324  1  0.53716701  0.63951436  0.43424225  1.0
  P  P5325  1  0.53716701  0.78237151  0.43424225  1.0
  P  P5326  1  0.53716701  0.92522865  0.43424225  1.0
  P  P5327  1  0.64827812  0.06808579  0.43424225  1.0
  P  P5328  1  0.64827812  0.21094294  0.43424225  1.0
  P  P5329  1  0.64827812  0.35380008  0.43424225  1.0
  P  P5330  1  0.64827812  0.49665722  0.43424225  1.0
  P  P5331  1  0.64827812  0.63951436  0.43424225  1.0
  P  P5332  1  0.64827812  0.78237151  0.43424225  1.0
  P  P5333  1  0.64827812  0.92522865  0.43424225  1.0
  P  P5334  1  0.75938923  0.06808579  0.43424225  1.0
  P  P5335  1  0.75938923  0.21094294  0.43424225  1.0
  P  P5336  1  0.75938923  0.35380008  0.43424225  1.0
  P  P5337  1  0.75938923  0.49665722  0.43424225  1.0
  P  P5338  1  0.75938923  0.63951436  0.43424225  1.0
  P  P5339  1  0.75938923  0.78237151  0.43424225  1.0
  P  P5340  1  0.75938923  0.92522865  0.43424225  1.0
  P  P5341  1  0.87050035  0.06808579  0.43424225  1.0
  P  P5342  1  0.87050035  0.21094294  0.43424225  1.0
  P  P5343  1  0.87050035  0.35380008  0.43424225  1.0
  P  P5344  1  0.87050035  0.49665722  0.43424225  1.0
  P  P5345  1  0.87050035  0.63951436  0.43424225  1.0
  P  P5346  1  0.87050035  0.78237151  0.43424225  1.0
  P  P5347  1  0.87050035  0.92522865  0.43424225  1.0
  P  P5348  1  0.98161146  0.06808579  0.43424225  1.0
  P  P5349  1  0.98161146  0.21094294  0.43424225  1.0
  P  P5350  1  0.98161146  0.35380008  0.43424225  1.0
  P  P5351  1  0.98161146  0.49665722  0.43424225  1.0
  P  P5352  1  0.98161146  0.63951436  0.43424225  1.0
  P  P5353  1  0.98161146  0.78237151  0.43424225  1.0
  P  P5354  1  0.98161146  0.92522865  0.43424225  1.0
  P  P5355  1  0.00277548  0.08169124  0.48186130  1.0
  P  P5356  1  0.00277548  0.22454838  0.48186130  1.0
  P  P5357  1  0.00277548  0.36740552  0.48186130  1.0
  P  P5358  1  0.00277548  0.51026266  0.48186130  1.0
  P  P5359  1  0.00277548  0.65311981  0.48186130  1.0
  P  P5360  1  0.00277548  0.79597695  0.48186130  1.0
  P  P5361  1  0.00277548  0.93883409  0.48186130  1.0
  P  P5362  1  0.11388659  0.08169124  0.48186130  1.0
  P  P5363  1  0.11388659  0.22454838  0.48186130  1.0
  P  P5364  1  0.11388659  0.36740552  0.48186130  1.0
  P  P5365  1  0.11388659  0.51026266  0.48186130  1.0
  P  P5366  1  0.11388659  0.65311981  0.48186130  1.0
  P  P5367  1  0.11388659  0.79597695  0.48186130  1.0
  P  P5368  1  0.11388659  0.93883409  0.48186130  1.0
  P  P5369  1  0.22499770  0.08169124  0.48186130  1.0
  P  P5370  1  0.22499770  0.22454838  0.48186130  1.0
  P  P5371  1  0.22499770  0.36740552  0.48186130  1.0
  P  P5372  1  0.22499770  0.51026266  0.48186130  1.0
  P  P5373  1  0.22499770  0.65311981  0.48186130  1.0
  P  P5374  1  0.22499770  0.79597695  0.48186130  1.0
  P  P5375  1  0.22499770  0.93883409  0.48186130  1.0
  P  P5376  1  0.33610881  0.08169124  0.48186130  1.0
  P  P5377  1  0.33610881  0.22454838  0.48186130  1.0
  P  P5378  1  0.33610881  0.36740552  0.48186130  1.0
  P  P5379  1  0.33610881  0.51026266  0.48186130  1.0
  P  P5380  1  0.33610881  0.65311981  0.48186130  1.0
  P  P5381  1  0.33610881  0.79597695  0.48186130  1.0
  P  P5382  1  0.33610881  0.93883409  0.48186130  1.0
  P  P5383  1  0.44721992  0.08169124  0.48186130  1.0
  P  P5384  1  0.44721992  0.22454838  0.48186130  1.0
  P  P5385  1  0.44721992  0.36740552  0.48186130  1.0
  P  P5386  1  0.44721992  0.51026266  0.48186130  1.0
  P  P5387  1  0.44721992  0.65311981  0.48186130  1.0
  P  P5388  1  0.44721992  0.79597695  0.48186130  1.0
  P  P5389  1  0.44721992  0.93883409  0.48186130  1.0
  P  P5390  1  0.55833103  0.08169124  0.48186130  1.0
  P  P5391  1  0.55833103  0.22454838  0.48186130  1.0
  P  P5392  1  0.55833103  0.36740552  0.48186130  1.0
  P  P5393  1  0.55833103  0.51026266  0.48186130  1.0
  P  P5394  1  0.55833103  0.65311981  0.48186130  1.0
  P  P5395  1  0.55833103  0.79597695  0.48186130  1.0
  P  P5396  1  0.55833103  0.93883409  0.48186130  1.0
  P  P5397  1  0.66944214  0.08169124  0.48186130  1.0
  P  P5398  1  0.66944214  0.22454838  0.48186130  1.0
  P  P5399  1  0.66944214  0.36740552  0.48186130  1.0
  P  P5400  1  0.66944214  0.51026266  0.48186130  1.0
  P  P5401  1  0.66944214  0.65311981  0.48186130  1.0
  P  P5402  1  0.66944214  0.79597695  0.48186130  1.0
  P  P5403  1  0.66944214  0.93883409  0.48186130  1.0
  P  P5404  1  0.78055326  0.08169124  0.48186130  1.0
  P  P5405  1  0.78055326  0.22454838  0.48186130  1.0
  P  P5406  1  0.78055326  0.36740552  0.48186130  1.0
  P  P5407  1  0.78055326  0.51026266  0.48186130  1.0
  P  P5408  1  0.78055326  0.65311981  0.48186130  1.0
  P  P5409  1  0.78055326  0.79597695  0.48186130  1.0
  P  P5410  1  0.78055326  0.93883409  0.48186130  1.0
  P  P5411  1  0.89166437  0.08169124  0.48186130  1.0
  P  P5412  1  0.89166437  0.22454838  0.48186130  1.0
  P  P5413  1  0.89166437  0.36740552  0.48186130  1.0
  P  P5414  1  0.89166437  0.51026266  0.48186130  1.0
  P  P5415  1  0.89166437  0.65311981  0.48186130  1.0
  P  P5416  1  0.89166437  0.79597695  0.48186130  1.0
  P  P5417  1  0.89166437  0.93883409  0.48186130  1.0
  P  P5418  1  0.07155855  0.05448035  0.38662320  1.0
  P  P5419  1  0.07155855  0.19733749  0.38662320  1.0
  P  P5420  1  0.07155855  0.34019464  0.38662320  1.0
  P  P5421  1  0.07155855  0.48305178  0.38662320  1.0
  P  P5422  1  0.07155855  0.62590892  0.38662320  1.0
  P  P5423  1  0.07155855  0.76876606  0.38662320  1.0
  P  P5424  1  0.07155855  0.91162321  0.38662320  1.0
  P  P5425  1  0.18266966  0.05448035  0.38662320  1.0
  P  P5426  1  0.18266966  0.19733749  0.38662320  1.0
  P  P5427  1  0.18266966  0.34019464  0.38662320  1.0
  P  P5428  1  0.18266966  0.48305178  0.38662320  1.0
  P  P5429  1  0.18266966  0.62590892  0.38662320  1.0
  P  P5430  1  0.18266966  0.76876606  0.38662320  1.0
  P  P5431  1  0.18266966  0.91162321  0.38662320  1.0
  P  P5432  1  0.29378077  0.05448035  0.38662320  1.0
  P  P5433  1  0.29378077  0.19733749  0.38662320  1.0
  P  P5434  1  0.29378077  0.34019464  0.38662320  1.0
  P  P5435  1  0.29378077  0.48305178  0.38662320  1.0
  P  P5436  1  0.29378077  0.62590892  0.38662320  1.0
  P  P5437  1  0.29378077  0.76876606  0.38662320  1.0
  P  P5438  1  0.29378077  0.91162321  0.38662320  1.0
  P  P5439  1  0.40489188  0.05448035  0.38662320  1.0
  P  P5440  1  0.40489188  0.19733749  0.38662320  1.0
  P  P5441  1  0.40489188  0.34019464  0.38662320  1.0
  P  P5442  1  0.40489188  0.48305178  0.38662320  1.0
  P  P5443  1  0.40489188  0.62590892  0.38662320  1.0
  P  P5444  1  0.40489188  0.76876606  0.38662320  1.0
  P  P5445  1  0.40489188  0.91162321  0.38662320  1.0
  P  P5446  1  0.51600299  0.05448035  0.38662320  1.0
  P  P5447  1  0.51600299  0.19733749  0.38662320  1.0
  P  P5448  1  0.51600299  0.34019464  0.38662320  1.0
  P  P5449  1  0.51600299  0.48305178  0.38662320  1.0
  P  P5450  1  0.51600299  0.62590892  0.38662320  1.0
  P  P5451  1  0.51600299  0.76876606  0.38662320  1.0
  P  P5452  1  0.51600299  0.91162321  0.38662320  1.0
  P  P5453  1  0.62711410  0.05448035  0.38662320  1.0
  P  P5454  1  0.62711410  0.19733749  0.38662320  1.0
  P  P5455  1  0.62711410  0.34019464  0.38662320  1.0
  P  P5456  1  0.62711410  0.48305178  0.38662320  1.0
  P  P5457  1  0.62711410  0.62590892  0.38662320  1.0
  P  P5458  1  0.62711410  0.76876606  0.38662320  1.0
  P  P5459  1  0.62711410  0.91162321  0.38662320  1.0
  P  P5460  1  0.73822521  0.05448035  0.38662320  1.0
  P  P5461  1  0.73822521  0.19733749  0.38662320  1.0
  P  P5462  1  0.73822521  0.34019464  0.38662320  1.0
  P  P5463  1  0.73822521  0.48305178  0.38662320  1.0
  P  P5464  1  0.73822521  0.62590892  0.38662320  1.0
  P  P5465  1  0.73822521  0.76876606  0.38662320  1.0
  P  P5466  1  0.73822521  0.91162321  0.38662320  1.0
  P  P5467  1  0.84933632  0.05448035  0.38662320  1.0
  P  P5468  1  0.84933632  0.19733749  0.38662320  1.0
  P  P5469  1  0.84933632  0.34019464  0.38662320  1.0
  P  P5470  1  0.84933632  0.48305178  0.38662320  1.0
  P  P5471  1  0.84933632  0.62590892  0.38662320  1.0
  P  P5472  1  0.84933632  0.76876606  0.38662320  1.0
  P  P5473  1  0.84933632  0.91162321  0.38662320  1.0
  P  P5474  1  0.96044744  0.05448035  0.38662320  1.0
  P  P5475  1  0.96044744  0.19733749  0.38662320  1.0
  P  P5476  1  0.96044744  0.34019464  0.38662320  1.0
  P  P5477  1  0.96044744  0.48305178  0.38662320  1.0
  P  P5478  1  0.96044744  0.62590892  0.38662320  1.0
  P  P5479  1  0.96044744  0.76876606  0.38662320  1.0
  P  P5480  1  0.96044744  0.91162321  0.38662320  1.0
  P  P5481  1  0.10545546  0.04776162  0.40275380  1.0
  P  P5482  1  0.10545546  0.19061876  0.40275380  1.0
  P  P5483  1  0.10545546  0.33347590  0.40275380  1.0
  P  P5484  1  0.10545546  0.47633304  0.40275380  1.0
  P  P5485  1  0.10545546  0.61919019  0.40275380  1.0
  P  P5486  1  0.10545546  0.76204733  0.40275380  1.0
  P  P5487  1  0.10545546  0.90490447  0.40275380  1.0
  P  P5488  1  0.21656657  0.04776162  0.40275380  1.0
  P  P5489  1  0.21656657  0.19061876  0.40275380  1.0
  P  P5490  1  0.21656657  0.33347590  0.40275380  1.0
  P  P5491  1  0.21656657  0.47633304  0.40275380  1.0
  P  P5492  1  0.21656657  0.61919019  0.40275380  1.0
  P  P5493  1  0.21656657  0.76204733  0.40275380  1.0
  P  P5494  1  0.21656657  0.90490447  0.40275380  1.0
  P  P5495  1  0.32767768  0.04776162  0.40275380  1.0
  P  P5496  1  0.32767768  0.19061876  0.40275380  1.0
  P  P5497  1  0.32767768  0.33347590  0.40275380  1.0
  P  P5498  1  0.32767768  0.47633304  0.40275380  1.0
  P  P5499  1  0.32767768  0.61919019  0.40275380  1.0
  P  P5500  1  0.32767768  0.76204733  0.40275380  1.0
  P  P5501  1  0.32767768  0.90490447  0.40275380  1.0
  P  P5502  1  0.43878879  0.04776162  0.40275380  1.0
  P  P5503  1  0.43878879  0.19061876  0.40275380  1.0
  P  P5504  1  0.43878879  0.33347590  0.40275380  1.0
  P  P5505  1  0.43878879  0.47633304  0.40275380  1.0
  P  P5506  1  0.43878879  0.61919019  0.40275380  1.0
  P  P5507  1  0.43878879  0.76204733  0.40275380  1.0
  P  P5508  1  0.43878879  0.90490447  0.40275380  1.0
  P  P5509  1  0.54989990  0.04776162  0.40275380  1.0
  P  P5510  1  0.54989990  0.19061876  0.40275380  1.0
  P  P5511  1  0.54989990  0.33347590  0.40275380  1.0
  P  P5512  1  0.54989990  0.47633304  0.40275380  1.0
  P  P5513  1  0.54989990  0.61919019  0.40275380  1.0
  P  P5514  1  0.54989990  0.76204733  0.40275380  1.0
  P  P5515  1  0.54989990  0.90490447  0.40275380  1.0
  P  P5516  1  0.66101101  0.04776162  0.40275380  1.0
  P  P5517  1  0.66101101  0.19061876  0.40275380  1.0
  P  P5518  1  0.66101101  0.33347590  0.40275380  1.0
  P  P5519  1  0.66101101  0.47633304  0.40275380  1.0
  P  P5520  1  0.66101101  0.61919019  0.40275380  1.0
  P  P5521  1  0.66101101  0.76204733  0.40275380  1.0
  P  P5522  1  0.66101101  0.90490447  0.40275380  1.0
  P  P5523  1  0.77212212  0.04776162  0.40275380  1.0
  P  P5524  1  0.77212212  0.19061876  0.40275380  1.0
  P  P5525  1  0.77212212  0.33347590  0.40275380  1.0
  P  P5526  1  0.77212212  0.47633304  0.40275380  1.0
  P  P5527  1  0.77212212  0.61919019  0.40275380  1.0
  P  P5528  1  0.77212212  0.76204733  0.40275380  1.0
  P  P5529  1  0.77212212  0.90490447  0.40275380  1.0
  P  P5530  1  0.88323323  0.04776162  0.40275380  1.0
  P  P5531  1  0.88323323  0.19061876  0.40275380  1.0
  P  P5532  1  0.88323323  0.33347590  0.40275380  1.0
  P  P5533  1  0.88323323  0.47633304  0.40275380  1.0
  P  P5534  1  0.88323323  0.61919019  0.40275380  1.0
  P  P5535  1  0.88323323  0.76204733  0.40275380  1.0
  P  P5536  1  0.88323323  0.90490447  0.40275380  1.0
  P  P5537  1  0.99434434  0.04776162  0.40275380  1.0
  P  P5538  1  0.99434434  0.19061876  0.40275380  1.0
  P  P5539  1  0.99434434  0.33347590  0.40275380  1.0
  P  P5540  1  0.99434434  0.47633304  0.40275380  1.0
  P  P5541  1  0.99434434  0.61919019  0.40275380  1.0
  P  P5542  1  0.99434434  0.76204733  0.40275380  1.0
  P  P5543  1  0.99434434  0.90490447  0.40275380  1.0
  P  P5544  1  0.01550837  0.06136706  0.45037285  1.0
  P  P5545  1  0.01550837  0.20422420  0.45037285  1.0
  P  P5546  1  0.01550837  0.34708134  0.45037285  1.0
  P  P5547  1  0.01550837  0.48993849  0.45037285  1.0
  P  P5548  1  0.01550837  0.63279563  0.45037285  1.0
  P  P5549  1  0.01550837  0.77565277  0.45037285  1.0
  P  P5550  1  0.01550837  0.91850992  0.45037285  1.0
  P  P5551  1  0.12661948  0.06136706  0.45037285  1.0
  P  P5552  1  0.12661948  0.20422420  0.45037285  1.0
  P  P5553  1  0.12661948  0.34708134  0.45037285  1.0
  P  P5554  1  0.12661948  0.48993849  0.45037285  1.0
  P  P5555  1  0.12661948  0.63279563  0.45037285  1.0
  P  P5556  1  0.12661948  0.77565277  0.45037285  1.0
  P  P5557  1  0.12661948  0.91850992  0.45037285  1.0
  P  P5558  1  0.23773059  0.06136706  0.45037285  1.0
  P  P5559  1  0.23773059  0.20422420  0.45037285  1.0
  P  P5560  1  0.23773059  0.34708134  0.45037285  1.0
  P  P5561  1  0.23773059  0.48993849  0.45037285  1.0
  P  P5562  1  0.23773059  0.63279563  0.45037285  1.0
  P  P5563  1  0.23773059  0.77565277  0.45037285  1.0
  P  P5564  1  0.23773059  0.91850992  0.45037285  1.0
  P  P5565  1  0.34884170  0.06136706  0.45037285  1.0
  P  P5566  1  0.34884170  0.20422420  0.45037285  1.0
  P  P5567  1  0.34884170  0.34708134  0.45037285  1.0
  P  P5568  1  0.34884170  0.48993849  0.45037285  1.0
  P  P5569  1  0.34884170  0.63279563  0.45037285  1.0
  P  P5570  1  0.34884170  0.77565277  0.45037285  1.0
  P  P5571  1  0.34884170  0.91850992  0.45037285  1.0
  P  P5572  1  0.45995281  0.06136706  0.45037285  1.0
  P  P5573  1  0.45995281  0.20422420  0.45037285  1.0
  P  P5574  1  0.45995281  0.34708134  0.45037285  1.0
  P  P5575  1  0.45995281  0.48993849  0.45037285  1.0
  P  P5576  1  0.45995281  0.63279563  0.45037285  1.0
  P  P5577  1  0.45995281  0.77565277  0.45037285  1.0
  P  P5578  1  0.45995281  0.91850992  0.45037285  1.0
  P  P5579  1  0.57106392  0.06136706  0.45037285  1.0
  P  P5580  1  0.57106392  0.20422420  0.45037285  1.0
  P  P5581  1  0.57106392  0.34708134  0.45037285  1.0
  P  P5582  1  0.57106392  0.48993849  0.45037285  1.0
  P  P5583  1  0.57106392  0.63279563  0.45037285  1.0
  P  P5584  1  0.57106392  0.77565277  0.45037285  1.0
  P  P5585  1  0.57106392  0.91850992  0.45037285  1.0
  P  P5586  1  0.68217503  0.06136706  0.45037285  1.0
  P  P5587  1  0.68217503  0.20422420  0.45037285  1.0
  P  P5588  1  0.68217503  0.34708134  0.45037285  1.0
  P  P5589  1  0.68217503  0.48993849  0.45037285  1.0
  P  P5590  1  0.68217503  0.63279563  0.45037285  1.0
  P  P5591  1  0.68217503  0.77565277  0.45037285  1.0
  P  P5592  1  0.68217503  0.91850992  0.45037285  1.0
  P  P5593  1  0.79328614  0.06136706  0.45037285  1.0
  P  P5594  1  0.79328614  0.20422420  0.45037285  1.0
  P  P5595  1  0.79328614  0.34708134  0.45037285  1.0
  P  P5596  1  0.79328614  0.48993849  0.45037285  1.0
  P  P5597  1  0.79328614  0.63279563  0.45037285  1.0
  P  P5598  1  0.79328614  0.77565277  0.45037285  1.0
  P  P5599  1  0.79328614  0.91850992  0.45037285  1.0
  P  P5600  1  0.90439725  0.06136706  0.45037285  1.0
  P  P5601  1  0.90439725  0.20422420  0.45037285  1.0
  P  P5602  1  0.90439725  0.34708134  0.45037285  1.0
  P  P5603  1  0.90439725  0.48993849  0.45037285  1.0
  P  P5604  1  0.90439725  0.63279563  0.45037285  1.0
  P  P5605  1  0.90439725  0.77565277  0.45037285  1.0
  P  P5606  1  0.90439725  0.91850992  0.45037285  1.0
  P  P5607  1  0.03667239  0.07497250  0.49799190  1.0
  P  P5608  1  0.03667239  0.21782964  0.49799190  1.0
  P  P5609  1  0.03667239  0.36068679  0.49799190  1.0
  P  P5610  1  0.03667239  0.50354393  0.49799190  1.0
  P  P5611  1  0.03667239  0.64640107  0.49799190  1.0
  P  P5612  1  0.03667239  0.78925821  0.49799190  1.0
  P  P5613  1  0.03667239  0.93211536  0.49799190  1.0
  P  P5614  1  0.14778350  0.07497250  0.49799190  1.0
  P  P5615  1  0.14778350  0.21782964  0.49799190  1.0
  P  P5616  1  0.14778350  0.36068679  0.49799190  1.0
  P  P5617  1  0.14778350  0.50354393  0.49799190  1.0
  P  P5618  1  0.14778350  0.64640107  0.49799190  1.0
  P  P5619  1  0.14778350  0.78925821  0.49799190  1.0
  P  P5620  1  0.14778350  0.93211536  0.49799190  1.0
  P  P5621  1  0.25889461  0.07497250  0.49799190  1.0
  P  P5622  1  0.25889461  0.21782964  0.49799190  1.0
  P  P5623  1  0.25889461  0.36068679  0.49799190  1.0
  P  P5624  1  0.25889461  0.50354393  0.49799190  1.0
  P  P5625  1  0.25889461  0.64640107  0.49799190  1.0
  P  P5626  1  0.25889461  0.78925821  0.49799190  1.0
  P  P5627  1  0.25889461  0.93211536  0.49799190  1.0
  P  P5628  1  0.37000572  0.07497250  0.49799190  1.0
  P  P5629  1  0.37000572  0.21782964  0.49799190  1.0
  P  P5630  1  0.37000572  0.36068679  0.49799190  1.0
  P  P5631  1  0.37000572  0.50354393  0.49799190  1.0
  P  P5632  1  0.37000572  0.64640107  0.49799190  1.0
  P  P5633  1  0.37000572  0.78925821  0.49799190  1.0
  P  P5634  1  0.37000572  0.93211536  0.49799190  1.0
  P  P5635  1  0.48111683  0.07497250  0.49799190  1.0
  P  P5636  1  0.48111683  0.21782964  0.49799190  1.0
  P  P5637  1  0.48111683  0.36068679  0.49799190  1.0
  P  P5638  1  0.48111683  0.50354393  0.49799190  1.0
  P  P5639  1  0.48111683  0.64640107  0.49799190  1.0
  P  P5640  1  0.48111683  0.78925821  0.49799190  1.0
  P  P5641  1  0.48111683  0.93211536  0.49799190  1.0
  P  P5642  1  0.59222794  0.07497250  0.49799190  1.0
  P  P5643  1  0.59222794  0.21782964  0.49799190  1.0
  P  P5644  1  0.59222794  0.36068679  0.49799190  1.0
  P  P5645  1  0.59222794  0.50354393  0.49799190  1.0
  P  P5646  1  0.59222794  0.64640107  0.49799190  1.0
  P  P5647  1  0.59222794  0.78925821  0.49799190  1.0
  P  P5648  1  0.59222794  0.93211536  0.49799190  1.0
  P  P5649  1  0.70333905  0.07497250  0.49799190  1.0
  P  P5650  1  0.70333905  0.21782964  0.49799190  1.0
  P  P5651  1  0.70333905  0.36068679  0.49799190  1.0
  P  P5652  1  0.70333905  0.50354393  0.49799190  1.0
  P  P5653  1  0.70333905  0.64640107  0.49799190  1.0
  P  P5654  1  0.70333905  0.78925821  0.49799190  1.0
  P  P5655  1  0.70333905  0.93211536  0.49799190  1.0
  P  P5656  1  0.81445016  0.07497250  0.49799190  1.0
  P  P5657  1  0.81445016  0.21782964  0.49799190  1.0
  P  P5658  1  0.81445016  0.36068679  0.49799190  1.0
  P  P5659  1  0.81445016  0.50354393  0.49799190  1.0
  P  P5660  1  0.81445016  0.64640107  0.49799190  1.0
  P  P5661  1  0.81445016  0.78925821  0.49799190  1.0
  P  P5662  1  0.81445016  0.93211536  0.49799190  1.0
  P  P5663  1  0.92556128  0.07497250  0.49799190  1.0
  P  P5664  1  0.92556128  0.21782964  0.49799190  1.0
  P  P5665  1  0.92556128  0.36068679  0.49799190  1.0
  P  P5666  1  0.92556128  0.50354393  0.49799190  1.0
  P  P5667  1  0.92556128  0.64640107  0.49799190  1.0
  P  P5668  1  0.92556128  0.78925821  0.49799190  1.0
  P  P5669  1  0.92556128  0.93211536  0.49799190  1.0
  P  P5670  1  0.03884516  0.12926569  0.43801808  1.0
  P  P5671  1  0.03884516  0.27212284  0.43801808  1.0
  P  P5672  1  0.03884516  0.41497998  0.43801808  1.0
  P  P5673  1  0.03884516  0.55783712  0.43801808  1.0
  P  P5674  1  0.03884516  0.70069427  0.43801808  1.0
  P  P5675  1  0.03884516  0.84355141  0.43801808  1.0
  P  P5676  1  0.03884516  0.98640855  0.43801808  1.0
  P  P5677  1  0.14995627  0.12926569  0.43801808  1.0
  P  P5678  1  0.14995627  0.27212284  0.43801808  1.0
  P  P5679  1  0.14995627  0.41497998  0.43801808  1.0
  P  P5680  1  0.14995627  0.55783712  0.43801808  1.0
  P  P5681  1  0.14995627  0.70069427  0.43801808  1.0
  P  P5682  1  0.14995627  0.84355141  0.43801808  1.0
  P  P5683  1  0.14995627  0.98640855  0.43801808  1.0
  P  P5684  1  0.26106738  0.12926569  0.43801808  1.0
  P  P5685  1  0.26106738  0.27212284  0.43801808  1.0
  P  P5686  1  0.26106738  0.41497998  0.43801808  1.0
  P  P5687  1  0.26106738  0.55783712  0.43801808  1.0
  P  P5688  1  0.26106738  0.70069427  0.43801808  1.0
  P  P5689  1  0.26106738  0.84355141  0.43801808  1.0
  P  P5690  1  0.26106738  0.98640855  0.43801808  1.0
  P  P5691  1  0.37217849  0.12926569  0.43801808  1.0
  P  P5692  1  0.37217849  0.27212284  0.43801808  1.0
  P  P5693  1  0.37217849  0.41497998  0.43801808  1.0
  P  P5694  1  0.37217849  0.55783712  0.43801808  1.0
  P  P5695  1  0.37217849  0.70069427  0.43801808  1.0
  P  P5696  1  0.37217849  0.84355141  0.43801808  1.0
  P  P5697  1  0.37217849  0.98640855  0.43801808  1.0
  P  P5698  1  0.48328960  0.12926569  0.43801808  1.0
  P  P5699  1  0.48328960  0.27212284  0.43801808  1.0
  P  P5700  1  0.48328960  0.41497998  0.43801808  1.0
  P  P5701  1  0.48328960  0.55783712  0.43801808  1.0
  P  P5702  1  0.48328960  0.70069427  0.43801808  1.0
  P  P5703  1  0.48328960  0.84355141  0.43801808  1.0
  P  P5704  1  0.48328960  0.98640855  0.43801808  1.0
  P  P5705  1  0.59440071  0.12926569  0.43801808  1.0
  P  P5706  1  0.59440071  0.27212284  0.43801808  1.0
  P  P5707  1  0.59440071  0.41497998  0.43801808  1.0
  P  P5708  1  0.59440071  0.55783712  0.43801808  1.0
  P  P5709  1  0.59440071  0.70069427  0.43801808  1.0
  P  P5710  1  0.59440071  0.84355141  0.43801808  1.0
  P  P5711  1  0.59440071  0.98640855  0.43801808  1.0
  P  P5712  1  0.70551182  0.12926569  0.43801808  1.0
  P  P5713  1  0.70551182  0.27212284  0.43801808  1.0
  P  P5714  1  0.70551182  0.41497998  0.43801808  1.0
  P  P5715  1  0.70551182  0.55783712  0.43801808  1.0
  P  P5716  1  0.70551182  0.70069427  0.43801808  1.0
  P  P5717  1  0.70551182  0.84355141  0.43801808  1.0
  P  P5718  1  0.70551182  0.98640855  0.43801808  1.0
  P  P5719  1  0.81662294  0.12926569  0.43801808  1.0
  P  P5720  1  0.81662294  0.27212284  0.43801808  1.0
  P  P5721  1  0.81662294  0.41497998  0.43801808  1.0
  P  P5722  1  0.81662294  0.55783712  0.43801808  1.0
  P  P5723  1  0.81662294  0.70069427  0.43801808  1.0
  P  P5724  1  0.81662294  0.84355141  0.43801808  1.0
  P  P5725  1  0.81662294  0.98640855  0.43801808  1.0
  P  P5726  1  0.92773405  0.12926569  0.43801808  1.0
  P  P5727  1  0.92773405  0.27212284  0.43801808  1.0
  P  P5728  1  0.92773405  0.41497998  0.43801808  1.0
  P  P5729  1  0.92773405  0.55783712  0.43801808  1.0
  P  P5730  1  0.92773405  0.70069427  0.43801808  1.0
  P  P5731  1  0.92773405  0.84355141  0.43801808  1.0
  P  P5732  1  0.92773405  0.98640855  0.43801808  1.0
  P  P5733  1  0.06000918  0.00001399  0.48563713  1.0
  P  P5734  1  0.06000918  0.14287114  0.48563713  1.0
  P  P5735  1  0.06000918  0.28572828  0.48563713  1.0
  P  P5736  1  0.06000918  0.42858542  0.48563713  1.0
  P  P5737  1  0.06000918  0.57144257  0.48563713  1.0
  P  P5738  1  0.06000918  0.71429971  0.48563713  1.0
  P  P5739  1  0.06000918  0.85715685  0.48563713  1.0
  P  P5740  1  0.17112029  0.00001399  0.48563713  1.0
  P  P5741  1  0.17112029  0.14287114  0.48563713  1.0
  P  P5742  1  0.17112029  0.28572828  0.48563713  1.0
  P  P5743  1  0.17112029  0.42858542  0.48563713  1.0
  P  P5744  1  0.17112029  0.57144257  0.48563713  1.0
  P  P5745  1  0.17112029  0.71429971  0.48563713  1.0
  P  P5746  1  0.17112029  0.85715685  0.48563713  1.0
  P  P5747  1  0.28223140  0.00001399  0.48563713  1.0
  P  P5748  1  0.28223140  0.14287114  0.48563713  1.0
  P  P5749  1  0.28223140  0.28572828  0.48563713  1.0
  P  P5750  1  0.28223140  0.42858542  0.48563713  1.0
  P  P5751  1  0.28223140  0.57144257  0.48563713  1.0
  P  P5752  1  0.28223140  0.71429971  0.48563713  1.0
  P  P5753  1  0.28223140  0.85715685  0.48563713  1.0
  P  P5754  1  0.39334251  0.00001399  0.48563713  1.0
  P  P5755  1  0.39334251  0.14287114  0.48563713  1.0
  P  P5756  1  0.39334251  0.28572828  0.48563713  1.0
  P  P5757  1  0.39334251  0.42858542  0.48563713  1.0
  P  P5758  1  0.39334251  0.57144257  0.48563713  1.0
  P  P5759  1  0.39334251  0.71429971  0.48563713  1.0
  P  P5760  1  0.39334251  0.85715685  0.48563713  1.0
  P  P5761  1  0.50445362  0.00001399  0.48563713  1.0
  P  P5762  1  0.50445362  0.14287114  0.48563713  1.0
  P  P5763  1  0.50445362  0.28572828  0.48563713  1.0
  P  P5764  1  0.50445362  0.42858542  0.48563713  1.0
  P  P5765  1  0.50445362  0.57144257  0.48563713  1.0
  P  P5766  1  0.50445362  0.71429971  0.48563713  1.0
  P  P5767  1  0.50445362  0.85715685  0.48563713  1.0
  P  P5768  1  0.61556473  0.00001399  0.48563713  1.0
  P  P5769  1  0.61556473  0.14287114  0.48563713  1.0
  P  P5770  1  0.61556473  0.28572828  0.48563713  1.0
  P  P5771  1  0.61556473  0.42858542  0.48563713  1.0
  P  P5772  1  0.61556473  0.57144257  0.48563713  1.0
  P  P5773  1  0.61556473  0.71429971  0.48563713  1.0
  P  P5774  1  0.61556473  0.85715685  0.48563713  1.0
  P  P5775  1  0.72667585  0.00001399  0.48563713  1.0
  P  P5776  1  0.72667585  0.14287114  0.48563713  1.0
  P  P5777  1  0.72667585  0.28572828  0.48563713  1.0
  P  P5778  1  0.72667585  0.42858542  0.48563713  1.0
  P  P5779  1  0.72667585  0.57144257  0.48563713  1.0
  P  P5780  1  0.72667585  0.71429971  0.48563713  1.0
  P  P5781  1  0.72667585  0.85715685  0.48563713  1.0
  P  P5782  1  0.83778696  0.00001399  0.48563713  1.0
  P  P5783  1  0.83778696  0.14287114  0.48563713  1.0
  P  P5784  1  0.83778696  0.28572828  0.48563713  1.0
  P  P5785  1  0.83778696  0.42858542  0.48563713  1.0
  P  P5786  1  0.83778696  0.57144257  0.48563713  1.0
  P  P5787  1  0.83778696  0.71429971  0.48563713  1.0
  P  P5788  1  0.83778696  0.85715685  0.48563713  1.0
  P  P5789  1  0.94889807  0.00001399  0.48563713  1.0
  P  P5790  1  0.94889807  0.14287114  0.48563713  1.0
  P  P5791  1  0.94889807  0.28572828  0.48563713  1.0
  P  P5792  1  0.94889807  0.42858542  0.48563713  1.0
  P  P5793  1  0.94889807  0.57144257  0.48563713  1.0
  P  P5794  1  0.94889807  0.71429971  0.48563713  1.0
  P  P5795  1  0.94889807  0.85715685  0.48563713  1.0
  P  P5796  1  0.01768114  0.11566025  0.39039903  1.0
  P  P5797  1  0.01768114  0.25851740  0.39039903  1.0
  P  P5798  1  0.01768114  0.40137454  0.39039903  1.0
  P  P5799  1  0.01768114  0.54423168  0.39039903  1.0
  P  P5800  1  0.01768114  0.68708882  0.39039903  1.0
  P  P5801  1  0.01768114  0.82994597  0.39039903  1.0
  P  P5802  1  0.01768114  0.97280311  0.39039903  1.0
  P  P5803  1  0.12879225  0.11566025  0.39039903  1.0
  P  P5804  1  0.12879225  0.25851740  0.39039903  1.0
  P  P5805  1  0.12879225  0.40137454  0.39039903  1.0
  P  P5806  1  0.12879225  0.54423168  0.39039903  1.0
  P  P5807  1  0.12879225  0.68708882  0.39039903  1.0
  P  P5808  1  0.12879225  0.82994597  0.39039903  1.0
  P  P5809  1  0.12879225  0.97280311  0.39039903  1.0
  P  P5810  1  0.23990336  0.11566025  0.39039903  1.0
  P  P5811  1  0.23990336  0.25851740  0.39039903  1.0
  P  P5812  1  0.23990336  0.40137454  0.39039903  1.0
  P  P5813  1  0.23990336  0.54423168  0.39039903  1.0
  P  P5814  1  0.23990336  0.68708882  0.39039903  1.0
  P  P5815  1  0.23990336  0.82994597  0.39039903  1.0
  P  P5816  1  0.23990336  0.97280311  0.39039903  1.0
  P  P5817  1  0.35101447  0.11566025  0.39039903  1.0
  P  P5818  1  0.35101447  0.25851740  0.39039903  1.0
  P  P5819  1  0.35101447  0.40137454  0.39039903  1.0
  P  P5820  1  0.35101447  0.54423168  0.39039903  1.0
  P  P5821  1  0.35101447  0.68708882  0.39039903  1.0
  P  P5822  1  0.35101447  0.82994597  0.39039903  1.0
  P  P5823  1  0.35101447  0.97280311  0.39039903  1.0
  P  P5824  1  0.46212558  0.11566025  0.39039903  1.0
  P  P5825  1  0.46212558  0.25851740  0.39039903  1.0
  P  P5826  1  0.46212558  0.40137454  0.39039903  1.0
  P  P5827  1  0.46212558  0.54423168  0.39039903  1.0
  P  P5828  1  0.46212558  0.68708882  0.39039903  1.0
  P  P5829  1  0.46212558  0.82994597  0.39039903  1.0
  P  P5830  1  0.46212558  0.97280311  0.39039903  1.0
  P  P5831  1  0.57323669  0.11566025  0.39039903  1.0
  P  P5832  1  0.57323669  0.25851740  0.39039903  1.0
  P  P5833  1  0.57323669  0.40137454  0.39039903  1.0
  P  P5834  1  0.57323669  0.54423168  0.39039903  1.0
  P  P5835  1  0.57323669  0.68708882  0.39039903  1.0
  P  P5836  1  0.57323669  0.82994597  0.39039903  1.0
  P  P5837  1  0.57323669  0.97280311  0.39039903  1.0
  P  P5838  1  0.68434780  0.11566025  0.39039903  1.0
  P  P5839  1  0.68434780  0.25851740  0.39039903  1.0
  P  P5840  1  0.68434780  0.40137454  0.39039903  1.0
  P  P5841  1  0.68434780  0.54423168  0.39039903  1.0
  P  P5842  1  0.68434780  0.68708882  0.39039903  1.0
  P  P5843  1  0.68434780  0.82994597  0.39039903  1.0
  P  P5844  1  0.68434780  0.97280311  0.39039903  1.0
  P  P5845  1  0.79545891  0.11566025  0.39039903  1.0
  P  P5846  1  0.79545891  0.25851740  0.39039903  1.0
  P  P5847  1  0.79545891  0.40137454  0.39039903  1.0
  P  P5848  1  0.79545891  0.54423168  0.39039903  1.0
  P  P5849  1  0.79545891  0.68708882  0.39039903  1.0
  P  P5850  1  0.79545891  0.82994597  0.39039903  1.0
  P  P5851  1  0.79545891  0.97280311  0.39039903  1.0
  P  P5852  1  0.90657003  0.11566025  0.39039903  1.0
  P  P5853  1  0.90657003  0.25851740  0.39039903  1.0
  P  P5854  1  0.90657003  0.40137454  0.39039903  1.0
  P  P5855  1  0.90657003  0.54423168  0.39039903  1.0
  P  P5856  1  0.90657003  0.68708882  0.39039903  1.0
  P  P5857  1  0.90657003  0.82994597  0.39039903  1.0
  P  P5858  1  0.90657003  0.97280311  0.39039903  1.0
  P  P5859  1  0.04822175  0.12943886  0.39897798  1.0
  P  P5860  1  0.04822175  0.27229600  0.39897798  1.0
  P  P5861  1  0.04822175  0.41515314  0.39897798  1.0
  P  P5862  1  0.04822175  0.55801029  0.39897798  1.0
  P  P5863  1  0.04822175  0.70086743  0.39897798  1.0
  P  P5864  1  0.04822175  0.84372457  0.39897798  1.0
  P  P5865  1  0.04822175  0.98658171  0.39897798  1.0
  P  P5866  1  0.15933287  0.12943886  0.39897798  1.0
  P  P5867  1  0.15933287  0.27229600  0.39897798  1.0
  P  P5868  1  0.15933287  0.41515314  0.39897798  1.0
  P  P5869  1  0.15933287  0.55801029  0.39897798  1.0
  P  P5870  1  0.15933287  0.70086743  0.39897798  1.0
  P  P5871  1  0.15933287  0.84372457  0.39897798  1.0
  P  P5872  1  0.15933287  0.98658171  0.39897798  1.0
  P  P5873  1  0.27044398  0.12943886  0.39897798  1.0
  P  P5874  1  0.27044398  0.27229600  0.39897798  1.0
  P  P5875  1  0.27044398  0.41515314  0.39897798  1.0
  P  P5876  1  0.27044398  0.55801029  0.39897798  1.0
  P  P5877  1  0.27044398  0.70086743  0.39897798  1.0
  P  P5878  1  0.27044398  0.84372457  0.39897798  1.0
  P  P5879  1  0.27044398  0.98658171  0.39897798  1.0
  P  P5880  1  0.38155509  0.12943886  0.39897798  1.0
  P  P5881  1  0.38155509  0.27229600  0.39897798  1.0
  P  P5882  1  0.38155509  0.41515314  0.39897798  1.0
  P  P5883  1  0.38155509  0.55801029  0.39897798  1.0
  P  P5884  1  0.38155509  0.70086743  0.39897798  1.0
  P  P5885  1  0.38155509  0.84372457  0.39897798  1.0
  P  P5886  1  0.38155509  0.98658171  0.39897798  1.0
  P  P5887  1  0.49266620  0.12943886  0.39897798  1.0
  P  P5888  1  0.49266620  0.27229600  0.39897798  1.0
  P  P5889  1  0.49266620  0.41515314  0.39897798  1.0
  P  P5890  1  0.49266620  0.55801029  0.39897798  1.0
  P  P5891  1  0.49266620  0.70086743  0.39897798  1.0
  P  P5892  1  0.49266620  0.84372457  0.39897798  1.0
  P  P5893  1  0.49266620  0.98658171  0.39897798  1.0
  P  P5894  1  0.60377731  0.12943886  0.39897798  1.0
  P  P5895  1  0.60377731  0.27229600  0.39897798  1.0
  P  P5896  1  0.60377731  0.41515314  0.39897798  1.0
  P  P5897  1  0.60377731  0.55801029  0.39897798  1.0
  P  P5898  1  0.60377731  0.70086743  0.39897798  1.0
  P  P5899  1  0.60377731  0.84372457  0.39897798  1.0
  P  P5900  1  0.60377731  0.98658171  0.39897798  1.0
  P  P5901  1  0.71488842  0.12943886  0.39897798  1.0
  P  P5902  1  0.71488842  0.27229600  0.39897798  1.0
  P  P5903  1  0.71488842  0.41515314  0.39897798  1.0
  P  P5904  1  0.71488842  0.55801029  0.39897798  1.0
  P  P5905  1  0.71488842  0.70086743  0.39897798  1.0
  P  P5906  1  0.71488842  0.84372457  0.39897798  1.0
  P  P5907  1  0.71488842  0.98658171  0.39897798  1.0
  P  P5908  1  0.82599953  0.12943886  0.39897798  1.0
  P  P5909  1  0.82599953  0.27229600  0.39897798  1.0
  P  P5910  1  0.82599953  0.41515314  0.39897798  1.0
  P  P5911  1  0.82599953  0.55801029  0.39897798  1.0
  P  P5912  1  0.82599953  0.70086743  0.39897798  1.0
  P  P5913  1  0.82599953  0.84372457  0.39897798  1.0
  P  P5914  1  0.82599953  0.98658171  0.39897798  1.0
  P  P5915  1  0.93711064  0.12943886  0.39897798  1.0
  P  P5916  1  0.93711064  0.27229600  0.39897798  1.0
  P  P5917  1  0.93711064  0.41515314  0.39897798  1.0
  P  P5918  1  0.93711064  0.55801029  0.39897798  1.0
  P  P5919  1  0.93711064  0.70086743  0.39897798  1.0
  P  P5920  1  0.93711064  0.84372457  0.39897798  1.0
  P  P5921  1  0.93711064  0.98658171  0.39897798  1.0
  P  P5922  1  0.06938578  0.00018716  0.44659702  1.0
  P  P5923  1  0.06938578  0.14304430  0.44659702  1.0
  P  P5924  1  0.06938578  0.28590144  0.44659702  1.0
  P  P5925  1  0.06938578  0.42875858  0.44659702  1.0
  P  P5926  1  0.06938578  0.57161573  0.44659702  1.0
  P  P5927  1  0.06938578  0.71447287  0.44659702  1.0
  P  P5928  1  0.06938578  0.85733001  0.44659702  1.0
  P  P5929  1  0.18049689  0.00018716  0.44659702  1.0
  P  P5930  1  0.18049689  0.14304430  0.44659702  1.0
  P  P5931  1  0.18049689  0.28590144  0.44659702  1.0
  P  P5932  1  0.18049689  0.42875858  0.44659702  1.0
  P  P5933  1  0.18049689  0.57161573  0.44659702  1.0
  P  P5934  1  0.18049689  0.71447287  0.44659702  1.0
  P  P5935  1  0.18049689  0.85733001  0.44659702  1.0
  P  P5936  1  0.29160800  0.00018716  0.44659702  1.0
  P  P5937  1  0.29160800  0.14304430  0.44659702  1.0
  P  P5938  1  0.29160800  0.28590144  0.44659702  1.0
  P  P5939  1  0.29160800  0.42875858  0.44659702  1.0
  P  P5940  1  0.29160800  0.57161573  0.44659702  1.0
  P  P5941  1  0.29160800  0.71447287  0.44659702  1.0
  P  P5942  1  0.29160800  0.85733001  0.44659702  1.0
  P  P5943  1  0.40271911  0.00018716  0.44659702  1.0
  P  P5944  1  0.40271911  0.14304430  0.44659702  1.0
  P  P5945  1  0.40271911  0.28590144  0.44659702  1.0
  P  P5946  1  0.40271911  0.42875858  0.44659702  1.0
  P  P5947  1  0.40271911  0.57161573  0.44659702  1.0
  P  P5948  1  0.40271911  0.71447287  0.44659702  1.0
  P  P5949  1  0.40271911  0.85733001  0.44659702  1.0
  P  P5950  1  0.51383022  0.00018716  0.44659702  1.0
  P  P5951  1  0.51383022  0.14304430  0.44659702  1.0
  P  P5952  1  0.51383022  0.28590144  0.44659702  1.0
  P  P5953  1  0.51383022  0.42875858  0.44659702  1.0
  P  P5954  1  0.51383022  0.57161573  0.44659702  1.0
  P  P5955  1  0.51383022  0.71447287  0.44659702  1.0
  P  P5956  1  0.51383022  0.85733001  0.44659702  1.0
  P  P5957  1  0.62494133  0.00018716  0.44659702  1.0
  P  P5958  1  0.62494133  0.14304430  0.44659702  1.0
  P  P5959  1  0.62494133  0.28590144  0.44659702  1.0
  P  P5960  1  0.62494133  0.42875858  0.44659702  1.0
  P  P5961  1  0.62494133  0.57161573  0.44659702  1.0
  P  P5962  1  0.62494133  0.71447287  0.44659702  1.0
  P  P5963  1  0.62494133  0.85733001  0.44659702  1.0
  P  P5964  1  0.73605244  0.00018716  0.44659702  1.0
  P  P5965  1  0.73605244  0.14304430  0.44659702  1.0
  P  P5966  1  0.73605244  0.28590144  0.44659702  1.0
  P  P5967  1  0.73605244  0.42875858  0.44659702  1.0
  P  P5968  1  0.73605244  0.57161573  0.44659702  1.0
  P  P5969  1  0.73605244  0.71447287  0.44659702  1.0
  P  P5970  1  0.73605244  0.85733001  0.44659702  1.0
  P  P5971  1  0.84716355  0.00018716  0.44659702  1.0
  P  P5972  1  0.84716355  0.14304430  0.44659702  1.0
  P  P5973  1  0.84716355  0.28590144  0.44659702  1.0
  P  P5974  1  0.84716355  0.42875858  0.44659702  1.0
  P  P5975  1  0.84716355  0.57161573  0.44659702  1.0
  P  P5976  1  0.84716355  0.71447287  0.44659702  1.0
  P  P5977  1  0.84716355  0.85733001  0.44659702  1.0
  P  P5978  1  0.95827466  0.00018716  0.44659702  1.0
  P  P5979  1  0.95827466  0.14304430  0.44659702  1.0
  P  P5980  1  0.95827466  0.28590144  0.44659702  1.0
  P  P5981  1  0.95827466  0.42875858  0.44659702  1.0
  P  P5982  1  0.95827466  0.57161573  0.44659702  1.0
  P  P5983  1  0.95827466  0.71447287  0.44659702  1.0
  P  P5984  1  0.95827466  0.85733001  0.44659702  1.0
  P  P5985  1  0.09054980  0.01379260  0.49421607  1.0
  P  P5986  1  0.09054980  0.15664974  0.49421607  1.0
  P  P5987  1  0.09054980  0.29950688  0.49421607  1.0
  P  P5988  1  0.09054980  0.44236403  0.49421607  1.0
  P  P5989  1  0.09054980  0.58522117  0.49421607  1.0
  P  P5990  1  0.09054980  0.72807831  0.49421607  1.0
  P  P5991  1  0.09054980  0.87093546  0.49421607  1.0
  P  P5992  1  0.20166091  0.01379260  0.49421607  1.0
  P  P5993  1  0.20166091  0.15664974  0.49421607  1.0
  P  P5994  1  0.20166091  0.29950688  0.49421607  1.0
  P  P5995  1  0.20166091  0.44236403  0.49421607  1.0
  P  P5996  1  0.20166091  0.58522117  0.49421607  1.0
  P  P5997  1  0.20166091  0.72807831  0.49421607  1.0
  P  P5998  1  0.20166091  0.87093546  0.49421607  1.0
  P  P5999  1  0.31277202  0.01379260  0.49421607  1.0
  P  P6000  1  0.31277202  0.15664974  0.49421607  1.0
  P  P6001  1  0.31277202  0.29950688  0.49421607  1.0
  P  P6002  1  0.31277202  0.44236403  0.49421607  1.0
  P  P6003  1  0.31277202  0.58522117  0.49421607  1.0
  P  P6004  1  0.31277202  0.72807831  0.49421607  1.0
  P  P6005  1  0.31277202  0.87093546  0.49421607  1.0
  P  P6006  1  0.42388313  0.01379260  0.49421607  1.0
  P  P6007  1  0.42388313  0.15664974  0.49421607  1.0
  P  P6008  1  0.42388313  0.29950688  0.49421607  1.0
  P  P6009  1  0.42388313  0.44236403  0.49421607  1.0
  P  P6010  1  0.42388313  0.58522117  0.49421607  1.0
  P  P6011  1  0.42388313  0.72807831  0.49421607  1.0
  P  P6012  1  0.42388313  0.87093546  0.49421607  1.0
  P  P6013  1  0.53499424  0.01379260  0.49421607  1.0
  P  P6014  1  0.53499424  0.15664974  0.49421607  1.0
  P  P6015  1  0.53499424  0.29950688  0.49421607  1.0
  P  P6016  1  0.53499424  0.44236403  0.49421607  1.0
  P  P6017  1  0.53499424  0.58522117  0.49421607  1.0
  P  P6018  1  0.53499424  0.72807831  0.49421607  1.0
  P  P6019  1  0.53499424  0.87093546  0.49421607  1.0
  P  P6020  1  0.64610535  0.01379260  0.49421607  1.0
  P  P6021  1  0.64610535  0.15664974  0.49421607  1.0
  P  P6022  1  0.64610535  0.29950688  0.49421607  1.0
  P  P6023  1  0.64610535  0.44236403  0.49421607  1.0
  P  P6024  1  0.64610535  0.58522117  0.49421607  1.0
  P  P6025  1  0.64610535  0.72807831  0.49421607  1.0
  P  P6026  1  0.64610535  0.87093546  0.49421607  1.0
  P  P6027  1  0.75721646  0.01379260  0.49421607  1.0
  P  P6028  1  0.75721646  0.15664974  0.49421607  1.0
  P  P6029  1  0.75721646  0.29950688  0.49421607  1.0
  P  P6030  1  0.75721646  0.44236403  0.49421607  1.0
  P  P6031  1  0.75721646  0.58522117  0.49421607  1.0
  P  P6032  1  0.75721646  0.72807831  0.49421607  1.0
  P  P6033  1  0.75721646  0.87093546  0.49421607  1.0
  P  P6034  1  0.86832757  0.01379260  0.49421607  1.0
  P  P6035  1  0.86832757  0.15664974  0.49421607  1.0
  P  P6036  1  0.86832757  0.29950688  0.49421607  1.0
  P  P6037  1  0.86832757  0.44236403  0.49421607  1.0
  P  P6038  1  0.86832757  0.58522117  0.49421607  1.0
  P  P6039  1  0.86832757  0.72807831  0.49421607  1.0
  P  P6040  1  0.86832757  0.87093546  0.49421607  1.0
  P  P6041  1  0.97943869  0.01379260  0.49421607  1.0
  P  P6042  1  0.97943869  0.15664974  0.49421607  1.0
  P  P6043  1  0.97943869  0.29950688  0.49421607  1.0
  P  P6044  1  0.97943869  0.44236403  0.49421607  1.0
  P  P6045  1  0.97943869  0.58522117  0.49421607  1.0
  P  P6046  1  0.97943869  0.72807831  0.49421607  1.0
  P  P6047  1  0.97943869  0.87093546  0.49421607  1.0
  P  P6048  1  0.00621151  0.11864996  0.56255228  1.0
  P  P6049  1  0.00621151  0.26150710  0.56255228  1.0
  P  P6050  1  0.00621151  0.40436425  0.56255228  1.0
  P  P6051  1  0.00621151  0.54722139  0.56255228  1.0
  P  P6052  1  0.00621151  0.69007853  0.56255228  1.0
  P  P6053  1  0.00621151  0.83293567  0.56255228  1.0
  P  P6054  1  0.00621151  0.97579282  0.56255228  1.0
  P  P6055  1  0.11732262  0.11864996  0.56255228  1.0
  P  P6056  1  0.11732262  0.26150710  0.56255228  1.0
  P  P6057  1  0.11732262  0.40436425  0.56255228  1.0
  P  P6058  1  0.11732262  0.54722139  0.56255228  1.0
  P  P6059  1  0.11732262  0.69007853  0.56255228  1.0
  P  P6060  1  0.11732262  0.83293567  0.56255228  1.0
  P  P6061  1  0.11732262  0.97579282  0.56255228  1.0
  P  P6062  1  0.22843373  0.11864996  0.56255228  1.0
  P  P6063  1  0.22843373  0.26150710  0.56255228  1.0
  P  P6064  1  0.22843373  0.40436425  0.56255228  1.0
  P  P6065  1  0.22843373  0.54722139  0.56255228  1.0
  P  P6066  1  0.22843373  0.69007853  0.56255228  1.0
  P  P6067  1  0.22843373  0.83293567  0.56255228  1.0
  P  P6068  1  0.22843373  0.97579282  0.56255228  1.0
  P  P6069  1  0.33954484  0.11864996  0.56255228  1.0
  P  P6070  1  0.33954484  0.26150710  0.56255228  1.0
  P  P6071  1  0.33954484  0.40436425  0.56255228  1.0
  P  P6072  1  0.33954484  0.54722139  0.56255228  1.0
  P  P6073  1  0.33954484  0.69007853  0.56255228  1.0
  P  P6074  1  0.33954484  0.83293567  0.56255228  1.0
  P  P6075  1  0.33954484  0.97579282  0.56255228  1.0
  P  P6076  1  0.45065595  0.11864996  0.56255228  1.0
  P  P6077  1  0.45065595  0.26150710  0.56255228  1.0
  P  P6078  1  0.45065595  0.40436425  0.56255228  1.0
  P  P6079  1  0.45065595  0.54722139  0.56255228  1.0
  P  P6080  1  0.45065595  0.69007853  0.56255228  1.0
  P  P6081  1  0.45065595  0.83293567  0.56255228  1.0
  P  P6082  1  0.45065595  0.97579282  0.56255228  1.0
  P  P6083  1  0.56176706  0.11864996  0.56255228  1.0
  P  P6084  1  0.56176706  0.26150710  0.56255228  1.0
  P  P6085  1  0.56176706  0.40436425  0.56255228  1.0
  P  P6086  1  0.56176706  0.54722139  0.56255228  1.0
  P  P6087  1  0.56176706  0.69007853  0.56255228  1.0
  P  P6088  1  0.56176706  0.83293567  0.56255228  1.0
  P  P6089  1  0.56176706  0.97579282  0.56255228  1.0
  P  P6090  1  0.67287817  0.11864996  0.56255228  1.0
  P  P6091  1  0.67287817  0.26150710  0.56255228  1.0
  P  P6092  1  0.67287817  0.40436425  0.56255228  1.0
  P  P6093  1  0.67287817  0.54722139  0.56255228  1.0
  P  P6094  1  0.67287817  0.69007853  0.56255228  1.0
  P  P6095  1  0.67287817  0.83293567  0.56255228  1.0
  P  P6096  1  0.67287817  0.97579282  0.56255228  1.0
  P  P6097  1  0.78398928  0.11864996  0.56255228  1.0
  P  P6098  1  0.78398928  0.26150710  0.56255228  1.0
  P  P6099  1  0.78398928  0.40436425  0.56255228  1.0
  P  P6100  1  0.78398928  0.54722139  0.56255228  1.0
  P  P6101  1  0.78398928  0.69007853  0.56255228  1.0
  P  P6102  1  0.78398928  0.83293567  0.56255228  1.0
  P  P6103  1  0.78398928  0.97579282  0.56255228  1.0
  P  P6104  1  0.89510039  0.11864996  0.56255228  1.0
  P  P6105  1  0.89510039  0.26150710  0.56255228  1.0
  P  P6106  1  0.89510039  0.40436425  0.56255228  1.0
  P  P6107  1  0.89510039  0.54722139  0.56255228  1.0
  P  P6108  1  0.89510039  0.69007853  0.56255228  1.0
  P  P6109  1  0.89510039  0.83293567  0.56255228  1.0
  P  P6110  1  0.89510039  0.97579282  0.56255228  1.0
  P  P6111  1  0.02737553  0.13225540  0.61017133  1.0
  P  P6112  1  0.02737553  0.27511255  0.61017133  1.0
  P  P6113  1  0.02737553  0.41796969  0.61017133  1.0
  P  P6114  1  0.02737553  0.56082683  0.61017133  1.0
  P  P6115  1  0.02737553  0.70368397  0.61017133  1.0
  P  P6116  1  0.02737553  0.84654112  0.61017133  1.0
  P  P6117  1  0.02737553  0.98939826  0.61017133  1.0
  P  P6118  1  0.13848664  0.13225540  0.61017133  1.0
  P  P6119  1  0.13848664  0.27511255  0.61017133  1.0
  P  P6120  1  0.13848664  0.41796969  0.61017133  1.0
  P  P6121  1  0.13848664  0.56082683  0.61017133  1.0
  P  P6122  1  0.13848664  0.70368397  0.61017133  1.0
  P  P6123  1  0.13848664  0.84654112  0.61017133  1.0
  P  P6124  1  0.13848664  0.98939826  0.61017133  1.0
  P  P6125  1  0.24959775  0.13225540  0.61017133  1.0
  P  P6126  1  0.24959775  0.27511255  0.61017133  1.0
  P  P6127  1  0.24959775  0.41796969  0.61017133  1.0
  P  P6128  1  0.24959775  0.56082683  0.61017133  1.0
  P  P6129  1  0.24959775  0.70368397  0.61017133  1.0
  P  P6130  1  0.24959775  0.84654112  0.61017133  1.0
  P  P6131  1  0.24959775  0.98939826  0.61017133  1.0
  P  P6132  1  0.36070886  0.13225540  0.61017133  1.0
  P  P6133  1  0.36070886  0.27511255  0.61017133  1.0
  P  P6134  1  0.36070886  0.41796969  0.61017133  1.0
  P  P6135  1  0.36070886  0.56082683  0.61017133  1.0
  P  P6136  1  0.36070886  0.70368397  0.61017133  1.0
  P  P6137  1  0.36070886  0.84654112  0.61017133  1.0
  P  P6138  1  0.36070886  0.98939826  0.61017133  1.0
  P  P6139  1  0.47181997  0.13225540  0.61017133  1.0
  P  P6140  1  0.47181997  0.27511255  0.61017133  1.0
  P  P6141  1  0.47181997  0.41796969  0.61017133  1.0
  P  P6142  1  0.47181997  0.56082683  0.61017133  1.0
  P  P6143  1  0.47181997  0.70368397  0.61017133  1.0
  P  P6144  1  0.47181997  0.84654112  0.61017133  1.0
  P  P6145  1  0.47181997  0.98939826  0.61017133  1.0
  P  P6146  1  0.58293108  0.13225540  0.61017133  1.0
  P  P6147  1  0.58293108  0.27511255  0.61017133  1.0
  P  P6148  1  0.58293108  0.41796969  0.61017133  1.0
  P  P6149  1  0.58293108  0.56082683  0.61017133  1.0
  P  P6150  1  0.58293108  0.70368397  0.61017133  1.0
  P  P6151  1  0.58293108  0.84654112  0.61017133  1.0
  P  P6152  1  0.58293108  0.98939826  0.61017133  1.0
  P  P6153  1  0.69404219  0.13225540  0.61017133  1.0
  P  P6154  1  0.69404219  0.27511255  0.61017133  1.0
  P  P6155  1  0.69404219  0.41796969  0.61017133  1.0
  P  P6156  1  0.69404219  0.56082683  0.61017133  1.0
  P  P6157  1  0.69404219  0.70368397  0.61017133  1.0
  P  P6158  1  0.69404219  0.84654112  0.61017133  1.0
  P  P6159  1  0.69404219  0.98939826  0.61017133  1.0
  P  P6160  1  0.80515330  0.13225540  0.61017133  1.0
  P  P6161  1  0.80515330  0.27511255  0.61017133  1.0
  P  P6162  1  0.80515330  0.41796969  0.61017133  1.0
  P  P6163  1  0.80515330  0.56082683  0.61017133  1.0
  P  P6164  1  0.80515330  0.70368397  0.61017133  1.0
  P  P6165  1  0.80515330  0.84654112  0.61017133  1.0
  P  P6166  1  0.80515330  0.98939826  0.61017133  1.0
  P  P6167  1  0.91626442  0.13225540  0.61017133  1.0
  P  P6168  1  0.91626442  0.27511255  0.61017133  1.0
  P  P6169  1  0.91626442  0.41796969  0.61017133  1.0
  P  P6170  1  0.91626442  0.56082683  0.61017133  1.0
  P  P6171  1  0.91626442  0.70368397  0.61017133  1.0
  P  P6172  1  0.91626442  0.84654112  0.61017133  1.0
  P  P6173  1  0.91626442  0.98939826  0.61017133  1.0
  P  P6174  1  0.09615860  0.10504452  0.51493323  1.0
  P  P6175  1  0.09615860  0.24790166  0.51493323  1.0
  P  P6176  1  0.09615860  0.39075880  0.51493323  1.0
  P  P6177  1  0.09615860  0.53361595  0.51493323  1.0
  P  P6178  1  0.09615860  0.67647309  0.51493323  1.0
  P  P6179  1  0.09615860  0.81933023  0.51493323  1.0
  P  P6180  1  0.09615860  0.96218738  0.51493323  1.0
  P  P6181  1  0.20726971  0.10504452  0.51493323  1.0
  P  P6182  1  0.20726971  0.24790166  0.51493323  1.0
  P  P6183  1  0.20726971  0.39075880  0.51493323  1.0
  P  P6184  1  0.20726971  0.53361595  0.51493323  1.0
  P  P6185  1  0.20726971  0.67647309  0.51493323  1.0
  P  P6186  1  0.20726971  0.81933023  0.51493323  1.0
  P  P6187  1  0.20726971  0.96218738  0.51493323  1.0
  P  P6188  1  0.31838082  0.10504452  0.51493323  1.0
  P  P6189  1  0.31838082  0.24790166  0.51493323  1.0
  P  P6190  1  0.31838082  0.39075880  0.51493323  1.0
  P  P6191  1  0.31838082  0.53361595  0.51493323  1.0
  P  P6192  1  0.31838082  0.67647309  0.51493323  1.0
  P  P6193  1  0.31838082  0.81933023  0.51493323  1.0
  P  P6194  1  0.31838082  0.96218738  0.51493323  1.0
  P  P6195  1  0.42949193  0.10504452  0.51493323  1.0
  P  P6196  1  0.42949193  0.24790166  0.51493323  1.0
  P  P6197  1  0.42949193  0.39075880  0.51493323  1.0
  P  P6198  1  0.42949193  0.53361595  0.51493323  1.0
  P  P6199  1  0.42949193  0.67647309  0.51493323  1.0
  P  P6200  1  0.42949193  0.81933023  0.51493323  1.0
  P  P6201  1  0.42949193  0.96218738  0.51493323  1.0
  P  P6202  1  0.54060304  0.10504452  0.51493323  1.0
  P  P6203  1  0.54060304  0.24790166  0.51493323  1.0
  P  P6204  1  0.54060304  0.39075880  0.51493323  1.0
  P  P6205  1  0.54060304  0.53361595  0.51493323  1.0
  P  P6206  1  0.54060304  0.67647309  0.51493323  1.0
  P  P6207  1  0.54060304  0.81933023  0.51493323  1.0
  P  P6208  1  0.54060304  0.96218738  0.51493323  1.0
  P  P6209  1  0.65171415  0.10504452  0.51493323  1.0
  P  P6210  1  0.65171415  0.24790166  0.51493323  1.0
  P  P6211  1  0.65171415  0.39075880  0.51493323  1.0
  P  P6212  1  0.65171415  0.53361595  0.51493323  1.0
  P  P6213  1  0.65171415  0.67647309  0.51493323  1.0
  P  P6214  1  0.65171415  0.81933023  0.51493323  1.0
  P  P6215  1  0.65171415  0.96218738  0.51493323  1.0
  P  P6216  1  0.76282526  0.10504452  0.51493323  1.0
  P  P6217  1  0.76282526  0.24790166  0.51493323  1.0
  P  P6218  1  0.76282526  0.39075880  0.51493323  1.0
  P  P6219  1  0.76282526  0.53361595  0.51493323  1.0
  P  P6220  1  0.76282526  0.67647309  0.51493323  1.0
  P  P6221  1  0.76282526  0.81933023  0.51493323  1.0
  P  P6222  1  0.76282526  0.96218738  0.51493323  1.0
  P  P6223  1  0.87393637  0.10504452  0.51493323  1.0
  P  P6224  1  0.87393637  0.24790166  0.51493323  1.0
  P  P6225  1  0.87393637  0.39075880  0.51493323  1.0
  P  P6226  1  0.87393637  0.53361595  0.51493323  1.0
  P  P6227  1  0.87393637  0.67647309  0.51493323  1.0
  P  P6228  1  0.87393637  0.81933023  0.51493323  1.0
  P  P6229  1  0.87393637  0.96218738  0.51493323  1.0
  P  P6230  1  0.98504748  0.10504452  0.51493323  1.0
  P  P6231  1  0.98504748  0.24790166  0.51493323  1.0
  P  P6232  1  0.98504748  0.39075880  0.51493323  1.0
  P  P6233  1  0.98504748  0.53361595  0.51493323  1.0
  P  P6234  1  0.98504748  0.67647309  0.51493323  1.0
  P  P6235  1  0.98504748  0.81933023  0.51493323  1.0
  P  P6236  1  0.98504748  0.96218738  0.51493323  1.0
  P  P6237  1  0.09672842  0.07883010  0.56015806  1.0
  P  P6238  1  0.09672842  0.22168724  0.56015806  1.0
  P  P6239  1  0.09672842  0.36454439  0.56015806  1.0
  P  P6240  1  0.09672842  0.50740153  0.56015806  1.0
  P  P6241  1  0.09672842  0.65025867  0.56015806  1.0
  P  P6242  1  0.09672842  0.79311582  0.56015806  1.0
  P  P6243  1  0.09672842  0.93597296  0.56015806  1.0
  P  P6244  1  0.20783953  0.07883010  0.56015806  1.0
  P  P6245  1  0.20783953  0.22168724  0.56015806  1.0
  P  P6246  1  0.20783953  0.36454439  0.56015806  1.0
  P  P6247  1  0.20783953  0.50740153  0.56015806  1.0
  P  P6248  1  0.20783953  0.65025867  0.56015806  1.0
  P  P6249  1  0.20783953  0.79311582  0.56015806  1.0
  P  P6250  1  0.20783953  0.93597296  0.56015806  1.0
  P  P6251  1  0.31895064  0.07883010  0.56015806  1.0
  P  P6252  1  0.31895064  0.22168724  0.56015806  1.0
  P  P6253  1  0.31895064  0.36454439  0.56015806  1.0
  P  P6254  1  0.31895064  0.50740153  0.56015806  1.0
  P  P6255  1  0.31895064  0.65025867  0.56015806  1.0
  P  P6256  1  0.31895064  0.79311582  0.56015806  1.0
  P  P6257  1  0.31895064  0.93597296  0.56015806  1.0
  P  P6258  1  0.43006176  0.07883010  0.56015806  1.0
  P  P6259  1  0.43006176  0.22168724  0.56015806  1.0
  P  P6260  1  0.43006176  0.36454439  0.56015806  1.0
  P  P6261  1  0.43006176  0.50740153  0.56015806  1.0
  P  P6262  1  0.43006176  0.65025867  0.56015806  1.0
  P  P6263  1  0.43006176  0.79311582  0.56015806  1.0
  P  P6264  1  0.43006176  0.93597296  0.56015806  1.0
  P  P6265  1  0.54117287  0.07883010  0.56015806  1.0
  P  P6266  1  0.54117287  0.22168724  0.56015806  1.0
  P  P6267  1  0.54117287  0.36454439  0.56015806  1.0
  P  P6268  1  0.54117287  0.50740153  0.56015806  1.0
  P  P6269  1  0.54117287  0.65025867  0.56015806  1.0
  P  P6270  1  0.54117287  0.79311582  0.56015806  1.0
  P  P6271  1  0.54117287  0.93597296  0.56015806  1.0
  P  P6272  1  0.65228398  0.07883010  0.56015806  1.0
  P  P6273  1  0.65228398  0.22168724  0.56015806  1.0
  P  P6274  1  0.65228398  0.36454439  0.56015806  1.0
  P  P6275  1  0.65228398  0.50740153  0.56015806  1.0
  P  P6276  1  0.65228398  0.65025867  0.56015806  1.0
  P  P6277  1  0.65228398  0.79311582  0.56015806  1.0
  P  P6278  1  0.65228398  0.93597296  0.56015806  1.0
  P  P6279  1  0.76339509  0.07883010  0.56015806  1.0
  P  P6280  1  0.76339509  0.22168724  0.56015806  1.0
  P  P6281  1  0.76339509  0.36454439  0.56015806  1.0
  P  P6282  1  0.76339509  0.50740153  0.56015806  1.0
  P  P6283  1  0.76339509  0.65025867  0.56015806  1.0
  P  P6284  1  0.76339509  0.79311582  0.56015806  1.0
  P  P6285  1  0.76339509  0.93597296  0.56015806  1.0
  P  P6286  1  0.87450620  0.07883010  0.56015806  1.0
  P  P6287  1  0.87450620  0.22168724  0.56015806  1.0
  P  P6288  1  0.87450620  0.36454439  0.56015806  1.0
  P  P6289  1  0.87450620  0.50740153  0.56015806  1.0
  P  P6290  1  0.87450620  0.65025867  0.56015806  1.0
  P  P6291  1  0.87450620  0.79311582  0.56015806  1.0
  P  P6292  1  0.87450620  0.93597296  0.56015806  1.0
  P  P6293  1  0.98561731  0.07883010  0.56015806  1.0
  P  P6294  1  0.98561731  0.22168724  0.56015806  1.0
  P  P6295  1  0.98561731  0.36454439  0.56015806  1.0
  P  P6296  1  0.98561731  0.50740153  0.56015806  1.0
  P  P6297  1  0.98561731  0.65025867  0.56015806  1.0
  P  P6298  1  0.98561731  0.79311582  0.56015806  1.0
  P  P6299  1  0.98561731  0.93597296  0.56015806  1.0
  P  P6300  1  0.00678133  0.09243554  0.60777711  1.0
  P  P6301  1  0.00678133  0.23529269  0.60777711  1.0
  P  P6302  1  0.00678133  0.37814983  0.60777711  1.0
  P  P6303  1  0.00678133  0.52100697  0.60777711  1.0
  P  P6304  1  0.00678133  0.66386412  0.60777711  1.0
  P  P6305  1  0.00678133  0.80672126  0.60777711  1.0
  P  P6306  1  0.00678133  0.94957840  0.60777711  1.0
  P  P6307  1  0.11789244  0.09243554  0.60777711  1.0
  P  P6308  1  0.11789244  0.23529269  0.60777711  1.0
  P  P6309  1  0.11789244  0.37814983  0.60777711  1.0
  P  P6310  1  0.11789244  0.52100697  0.60777711  1.0
  P  P6311  1  0.11789244  0.66386412  0.60777711  1.0
  P  P6312  1  0.11789244  0.80672126  0.60777711  1.0
  P  P6313  1  0.11789244  0.94957840  0.60777711  1.0
  P  P6314  1  0.22900355  0.09243554  0.60777711  1.0
  P  P6315  1  0.22900355  0.23529269  0.60777711  1.0
  P  P6316  1  0.22900355  0.37814983  0.60777711  1.0
  P  P6317  1  0.22900355  0.52100697  0.60777711  1.0
  P  P6318  1  0.22900355  0.66386412  0.60777711  1.0
  P  P6319  1  0.22900355  0.80672126  0.60777711  1.0
  P  P6320  1  0.22900355  0.94957840  0.60777711  1.0
  P  P6321  1  0.34011467  0.09243554  0.60777711  1.0
  P  P6322  1  0.34011467  0.23529269  0.60777711  1.0
  P  P6323  1  0.34011467  0.37814983  0.60777711  1.0
  P  P6324  1  0.34011467  0.52100697  0.60777711  1.0
  P  P6325  1  0.34011467  0.66386412  0.60777711  1.0
  P  P6326  1  0.34011467  0.80672126  0.60777711  1.0
  P  P6327  1  0.34011467  0.94957840  0.60777711  1.0
  P  P6328  1  0.45122578  0.09243554  0.60777711  1.0
  P  P6329  1  0.45122578  0.23529269  0.60777711  1.0
  P  P6330  1  0.45122578  0.37814983  0.60777711  1.0
  P  P6331  1  0.45122578  0.52100697  0.60777711  1.0
  P  P6332  1  0.45122578  0.66386412  0.60777711  1.0
  P  P6333  1  0.45122578  0.80672126  0.60777711  1.0
  P  P6334  1  0.45122578  0.94957840  0.60777711  1.0
  P  P6335  1  0.56233689  0.09243554  0.60777711  1.0
  P  P6336  1  0.56233689  0.23529269  0.60777711  1.0
  P  P6337  1  0.56233689  0.37814983  0.60777711  1.0
  P  P6338  1  0.56233689  0.52100697  0.60777711  1.0
  P  P6339  1  0.56233689  0.66386412  0.60777711  1.0
  P  P6340  1  0.56233689  0.80672126  0.60777711  1.0
  P  P6341  1  0.56233689  0.94957840  0.60777711  1.0
  P  P6342  1  0.67344800  0.09243554  0.60777711  1.0
  P  P6343  1  0.67344800  0.23529269  0.60777711  1.0
  P  P6344  1  0.67344800  0.37814983  0.60777711  1.0
  P  P6345  1  0.67344800  0.52100697  0.60777711  1.0
  P  P6346  1  0.67344800  0.66386412  0.60777711  1.0
  P  P6347  1  0.67344800  0.80672126  0.60777711  1.0
  P  P6348  1  0.67344800  0.94957840  0.60777711  1.0
  P  P6349  1  0.78455911  0.09243554  0.60777711  1.0
  P  P6350  1  0.78455911  0.23529269  0.60777711  1.0
  P  P6351  1  0.78455911  0.37814983  0.60777711  1.0
  P  P6352  1  0.78455911  0.52100697  0.60777711  1.0
  P  P6353  1  0.78455911  0.66386412  0.60777711  1.0
  P  P6354  1  0.78455911  0.80672126  0.60777711  1.0
  P  P6355  1  0.78455911  0.94957840  0.60777711  1.0
  P  P6356  1  0.89567022  0.09243554  0.60777711  1.0
  P  P6357  1  0.89567022  0.23529269  0.60777711  1.0
  P  P6358  1  0.89567022  0.37814983  0.60777711  1.0
  P  P6359  1  0.89567022  0.52100697  0.60777711  1.0
  P  P6360  1  0.89567022  0.66386412  0.60777711  1.0
  P  P6361  1  0.89567022  0.80672126  0.60777711  1.0
  P  P6362  1  0.89567022  0.94957840  0.60777711  1.0
  P  P6363  1  0.07556440  0.06522466  0.51253901  1.0
  P  P6364  1  0.07556440  0.20808180  0.51253901  1.0
  P  P6365  1  0.07556440  0.35093894  0.51253901  1.0
  P  P6366  1  0.07556440  0.49379609  0.51253901  1.0
  P  P6367  1  0.07556440  0.63665323  0.51253901  1.0
  P  P6368  1  0.07556440  0.77951037  0.51253901  1.0
  P  P6369  1  0.07556440  0.92236752  0.51253901  1.0
  P  P6370  1  0.18667551  0.06522466  0.51253901  1.0
  P  P6371  1  0.18667551  0.20808180  0.51253901  1.0
  P  P6372  1  0.18667551  0.35093894  0.51253901  1.0
  P  P6373  1  0.18667551  0.49379609  0.51253901  1.0
  P  P6374  1  0.18667551  0.63665323  0.51253901  1.0
  P  P6375  1  0.18667551  0.77951037  0.51253901  1.0
  P  P6376  1  0.18667551  0.92236752  0.51253901  1.0
  P  P6377  1  0.29778662  0.06522466  0.51253901  1.0
  P  P6378  1  0.29778662  0.20808180  0.51253901  1.0
  P  P6379  1  0.29778662  0.35093894  0.51253901  1.0
  P  P6380  1  0.29778662  0.49379609  0.51253901  1.0
  P  P6381  1  0.29778662  0.63665323  0.51253901  1.0
  P  P6382  1  0.29778662  0.77951037  0.51253901  1.0
  P  P6383  1  0.29778662  0.92236752  0.51253901  1.0
  P  P6384  1  0.40889773  0.06522466  0.51253901  1.0
  P  P6385  1  0.40889773  0.20808180  0.51253901  1.0
  P  P6386  1  0.40889773  0.35093894  0.51253901  1.0
  P  P6387  1  0.40889773  0.49379609  0.51253901  1.0
  P  P6388  1  0.40889773  0.63665323  0.51253901  1.0
  P  P6389  1  0.40889773  0.77951037  0.51253901  1.0
  P  P6390  1  0.40889773  0.92236752  0.51253901  1.0
  P  P6391  1  0.52000885  0.06522466  0.51253901  1.0
  P  P6392  1  0.52000885  0.20808180  0.51253901  1.0
  P  P6393  1  0.52000885  0.35093894  0.51253901  1.0
  P  P6394  1  0.52000885  0.49379609  0.51253901  1.0
  P  P6395  1  0.52000885  0.63665323  0.51253901  1.0
  P  P6396  1  0.52000885  0.77951037  0.51253901  1.0
  P  P6397  1  0.52000885  0.92236752  0.51253901  1.0
  P  P6398  1  0.63111996  0.06522466  0.51253901  1.0
  P  P6399  1  0.63111996  0.20808180  0.51253901  1.0
  P  P6400  1  0.63111996  0.35093894  0.51253901  1.0
  P  P6401  1  0.63111996  0.49379609  0.51253901  1.0
  P  P6402  1  0.63111996  0.63665323  0.51253901  1.0
  P  P6403  1  0.63111996  0.77951037  0.51253901  1.0
  P  P6404  1  0.63111996  0.92236752  0.51253901  1.0
  P  P6405  1  0.74223107  0.06522466  0.51253901  1.0
  P  P6406  1  0.74223107  0.20808180  0.51253901  1.0
  P  P6407  1  0.74223107  0.35093894  0.51253901  1.0
  P  P6408  1  0.74223107  0.49379609  0.51253901  1.0
  P  P6409  1  0.74223107  0.63665323  0.51253901  1.0
  P  P6410  1  0.74223107  0.77951037  0.51253901  1.0
  P  P6411  1  0.74223107  0.92236752  0.51253901  1.0
  P  P6412  1  0.85334218  0.06522466  0.51253901  1.0
  P  P6413  1  0.85334218  0.20808180  0.51253901  1.0
  P  P6414  1  0.85334218  0.35093894  0.51253901  1.0
  P  P6415  1  0.85334218  0.49379609  0.51253901  1.0
  P  P6416  1  0.85334218  0.63665323  0.51253901  1.0
  P  P6417  1  0.85334218  0.77951037  0.51253901  1.0
  P  P6418  1  0.85334218  0.92236752  0.51253901  1.0
  P  P6419  1  0.96445329  0.06522466  0.51253901  1.0
  P  P6420  1  0.96445329  0.20808180  0.51253901  1.0
  P  P6421  1  0.96445329  0.35093894  0.51253901  1.0
  P  P6422  1  0.96445329  0.49379609  0.51253901  1.0
  P  P6423  1  0.96445329  0.63665323  0.51253901  1.0
  P  P6424  1  0.96445329  0.77951037  0.51253901  1.0
  P  P6425  1  0.96445329  0.92236752  0.51253901  1.0
  P  P6426  1  0.06756496  0.01181281  0.57559754  1.0
  P  P6427  1  0.06756496  0.15466995  0.57559754  1.0
  P  P6428  1  0.06756496  0.29752710  0.57559754  1.0
  P  P6429  1  0.06756496  0.44038424  0.57559754  1.0
  P  P6430  1  0.06756496  0.58324138  0.57559754  1.0
  P  P6431  1  0.06756496  0.72609852  0.57559754  1.0
  P  P6432  1  0.06756496  0.86895567  0.57559754  1.0
  P  P6433  1  0.17867607  0.01181281  0.57559754  1.0
  P  P6434  1  0.17867607  0.15466995  0.57559754  1.0
  P  P6435  1  0.17867607  0.29752710  0.57559754  1.0
  P  P6436  1  0.17867607  0.44038424  0.57559754  1.0
  P  P6437  1  0.17867607  0.58324138  0.57559754  1.0
  P  P6438  1  0.17867607  0.72609852  0.57559754  1.0
  P  P6439  1  0.17867607  0.86895567  0.57559754  1.0
  P  P6440  1  0.28978718  0.01181281  0.57559754  1.0
  P  P6441  1  0.28978718  0.15466995  0.57559754  1.0
  P  P6442  1  0.28978718  0.29752710  0.57559754  1.0
  P  P6443  1  0.28978718  0.44038424  0.57559754  1.0
  P  P6444  1  0.28978718  0.58324138  0.57559754  1.0
  P  P6445  1  0.28978718  0.72609852  0.57559754  1.0
  P  P6446  1  0.28978718  0.86895567  0.57559754  1.0
  P  P6447  1  0.40089829  0.01181281  0.57559754  1.0
  P  P6448  1  0.40089829  0.15466995  0.57559754  1.0
  P  P6449  1  0.40089829  0.29752710  0.57559754  1.0
  P  P6450  1  0.40089829  0.44038424  0.57559754  1.0
  P  P6451  1  0.40089829  0.58324138  0.57559754  1.0
  P  P6452  1  0.40089829  0.72609852  0.57559754  1.0
  P  P6453  1  0.40089829  0.86895567  0.57559754  1.0
  P  P6454  1  0.51200940  0.01181281  0.57559754  1.0
  P  P6455  1  0.51200940  0.15466995  0.57559754  1.0
  P  P6456  1  0.51200940  0.29752710  0.57559754  1.0
  P  P6457  1  0.51200940  0.44038424  0.57559754  1.0
  P  P6458  1  0.51200940  0.58324138  0.57559754  1.0
  P  P6459  1  0.51200940  0.72609852  0.57559754  1.0
  P  P6460  1  0.51200940  0.86895567  0.57559754  1.0
  P  P6461  1  0.62312051  0.01181281  0.57559754  1.0
  P  P6462  1  0.62312051  0.15466995  0.57559754  1.0
  P  P6463  1  0.62312051  0.29752710  0.57559754  1.0
  P  P6464  1  0.62312051  0.44038424  0.57559754  1.0
  P  P6465  1  0.62312051  0.58324138  0.57559754  1.0
  P  P6466  1  0.62312051  0.72609852  0.57559754  1.0
  P  P6467  1  0.62312051  0.86895567  0.57559754  1.0
  P  P6468  1  0.73423162  0.01181281  0.57559754  1.0
  P  P6469  1  0.73423162  0.15466995  0.57559754  1.0
  P  P6470  1  0.73423162  0.29752710  0.57559754  1.0
  P  P6471  1  0.73423162  0.44038424  0.57559754  1.0
  P  P6472  1  0.73423162  0.58324138  0.57559754  1.0
  P  P6473  1  0.73423162  0.72609852  0.57559754  1.0
  P  P6474  1  0.73423162  0.86895567  0.57559754  1.0
  P  P6475  1  0.84534273  0.01181281  0.57559754  1.0
  P  P6476  1  0.84534273  0.15466995  0.57559754  1.0
  P  P6477  1  0.84534273  0.29752710  0.57559754  1.0
  P  P6478  1  0.84534273  0.44038424  0.57559754  1.0
  P  P6479  1  0.84534273  0.58324138  0.57559754  1.0
  P  P6480  1  0.84534273  0.72609852  0.57559754  1.0
  P  P6481  1  0.84534273  0.86895567  0.57559754  1.0
  P  P6482  1  0.95645385  0.01181281  0.57559754  1.0
  P  P6483  1  0.95645385  0.15466995  0.57559754  1.0
  P  P6484  1  0.95645385  0.29752710  0.57559754  1.0
  P  P6485  1  0.95645385  0.44038424  0.57559754  1.0
  P  P6486  1  0.95645385  0.58324138  0.57559754  1.0
  P  P6487  1  0.95645385  0.72609852  0.57559754  1.0
  P  P6488  1  0.95645385  0.86895567  0.57559754  1.0
  P  P6489  1  0.08872898  0.02541825  0.62321659  1.0
  P  P6490  1  0.08872898  0.16827540  0.62321659  1.0
  P  P6491  1  0.08872898  0.31113254  0.62321659  1.0
  P  P6492  1  0.08872898  0.45398968  0.62321659  1.0
  P  P6493  1  0.08872898  0.59684682  0.62321659  1.0
  P  P6494  1  0.08872898  0.73970397  0.62321659  1.0
  P  P6495  1  0.08872898  0.88256111  0.62321659  1.0
  P  P6496  1  0.19984009  0.02541825  0.62321659  1.0
  P  P6497  1  0.19984009  0.16827540  0.62321659  1.0
  P  P6498  1  0.19984009  0.31113254  0.62321659  1.0
  P  P6499  1  0.19984009  0.45398968  0.62321659  1.0
  P  P6500  1  0.19984009  0.59684682  0.62321659  1.0
  P  P6501  1  0.19984009  0.73970397  0.62321659  1.0
  P  P6502  1  0.19984009  0.88256111  0.62321659  1.0
  P  P6503  1  0.31095120  0.02541825  0.62321659  1.0
  P  P6504  1  0.31095120  0.16827540  0.62321659  1.0
  P  P6505  1  0.31095120  0.31113254  0.62321659  1.0
  P  P6506  1  0.31095120  0.45398968  0.62321659  1.0
  P  P6507  1  0.31095120  0.59684682  0.62321659  1.0
  P  P6508  1  0.31095120  0.73970397  0.62321659  1.0
  P  P6509  1  0.31095120  0.88256111  0.62321659  1.0
  P  P6510  1  0.42206231  0.02541825  0.62321659  1.0
  P  P6511  1  0.42206231  0.16827540  0.62321659  1.0
  P  P6512  1  0.42206231  0.31113254  0.62321659  1.0
  P  P6513  1  0.42206231  0.45398968  0.62321659  1.0
  P  P6514  1  0.42206231  0.59684682  0.62321659  1.0
  P  P6515  1  0.42206231  0.73970397  0.62321659  1.0
  P  P6516  1  0.42206231  0.88256111  0.62321659  1.0
  P  P6517  1  0.53317342  0.02541825  0.62321659  1.0
  P  P6518  1  0.53317342  0.16827540  0.62321659  1.0
  P  P6519  1  0.53317342  0.31113254  0.62321659  1.0
  P  P6520  1  0.53317342  0.45398968  0.62321659  1.0
  P  P6521  1  0.53317342  0.59684682  0.62321659  1.0
  P  P6522  1  0.53317342  0.73970397  0.62321659  1.0
  P  P6523  1  0.53317342  0.88256111  0.62321659  1.0
  P  P6524  1  0.64428453  0.02541825  0.62321659  1.0
  P  P6525  1  0.64428453  0.16827540  0.62321659  1.0
  P  P6526  1  0.64428453  0.31113254  0.62321659  1.0
  P  P6527  1  0.64428453  0.45398968  0.62321659  1.0
  P  P6528  1  0.64428453  0.59684682  0.62321659  1.0
  P  P6529  1  0.64428453  0.73970397  0.62321659  1.0
  P  P6530  1  0.64428453  0.88256111  0.62321659  1.0
  P  P6531  1  0.75539564  0.02541825  0.62321659  1.0
  P  P6532  1  0.75539564  0.16827540  0.62321659  1.0
  P  P6533  1  0.75539564  0.31113254  0.62321659  1.0
  P  P6534  1  0.75539564  0.45398968  0.62321659  1.0
  P  P6535  1  0.75539564  0.59684682  0.62321659  1.0
  P  P6536  1  0.75539564  0.73970397  0.62321659  1.0
  P  P6537  1  0.75539564  0.88256111  0.62321659  1.0
  P  P6538  1  0.86650676  0.02541825  0.62321659  1.0
  P  P6539  1  0.86650676  0.16827540  0.62321659  1.0
  P  P6540  1  0.86650676  0.31113254  0.62321659  1.0
  P  P6541  1  0.86650676  0.45398968  0.62321659  1.0
  P  P6542  1  0.86650676  0.59684682  0.62321659  1.0
  P  P6543  1  0.86650676  0.73970397  0.62321659  1.0
  P  P6544  1  0.86650676  0.88256111  0.62321659  1.0
  P  P6545  1  0.97761787  0.02541825  0.62321659  1.0
  P  P6546  1  0.97761787  0.16827540  0.62321659  1.0
  P  P6547  1  0.97761787  0.31113254  0.62321659  1.0
  P  P6548  1  0.97761787  0.45398968  0.62321659  1.0
  P  P6549  1  0.97761787  0.59684682  0.62321659  1.0
  P  P6550  1  0.97761787  0.73970397  0.62321659  1.0
  P  P6551  1  0.97761787  0.88256111  0.62321659  1.0
  P  P6552  1  0.04640094  0.14106451  0.52797850  1.0
  P  P6553  1  0.04640094  0.28392165  0.52797850  1.0
  P  P6554  1  0.04640094  0.42677880  0.52797850  1.0
  P  P6555  1  0.04640094  0.56963594  0.52797850  1.0
  P  P6556  1  0.04640094  0.71249308  0.52797850  1.0
  P  P6557  1  0.04640094  0.85535023  0.52797850  1.0
  P  P6558  1  0.04640094  0.99820737  0.52797850  1.0
  P  P6559  1  0.15751205  0.14106451  0.52797850  1.0
  P  P6560  1  0.15751205  0.28392165  0.52797850  1.0
  P  P6561  1  0.15751205  0.42677880  0.52797850  1.0
  P  P6562  1  0.15751205  0.56963594  0.52797850  1.0
  P  P6563  1  0.15751205  0.71249308  0.52797850  1.0
  P  P6564  1  0.15751205  0.85535023  0.52797850  1.0
  P  P6565  1  0.15751205  0.99820737  0.52797850  1.0
  P  P6566  1  0.26862316  0.14106451  0.52797850  1.0
  P  P6567  1  0.26862316  0.28392165  0.52797850  1.0
  P  P6568  1  0.26862316  0.42677880  0.52797850  1.0
  P  P6569  1  0.26862316  0.56963594  0.52797850  1.0
  P  P6570  1  0.26862316  0.71249308  0.52797850  1.0
  P  P6571  1  0.26862316  0.85535023  0.52797850  1.0
  P  P6572  1  0.26862316  0.99820737  0.52797850  1.0
  P  P6573  1  0.37973427  0.14106451  0.52797850  1.0
  P  P6574  1  0.37973427  0.28392165  0.52797850  1.0
  P  P6575  1  0.37973427  0.42677880  0.52797850  1.0
  P  P6576  1  0.37973427  0.56963594  0.52797850  1.0
  P  P6577  1  0.37973427  0.71249308  0.52797850  1.0
  P  P6578  1  0.37973427  0.85535023  0.52797850  1.0
  P  P6579  1  0.37973427  0.99820737  0.52797850  1.0
  P  P6580  1  0.49084538  0.14106451  0.52797850  1.0
  P  P6581  1  0.49084538  0.28392165  0.52797850  1.0
  P  P6582  1  0.49084538  0.42677880  0.52797850  1.0
  P  P6583  1  0.49084538  0.56963594  0.52797850  1.0
  P  P6584  1  0.49084538  0.71249308  0.52797850  1.0
  P  P6585  1  0.49084538  0.85535023  0.52797850  1.0
  P  P6586  1  0.49084538  0.99820737  0.52797850  1.0
  P  P6587  1  0.60195649  0.14106451  0.52797850  1.0
  P  P6588  1  0.60195649  0.28392165  0.52797850  1.0
  P  P6589  1  0.60195649  0.42677880  0.52797850  1.0
  P  P6590  1  0.60195649  0.56963594  0.52797850  1.0
  P  P6591  1  0.60195649  0.71249308  0.52797850  1.0
  P  P6592  1  0.60195649  0.85535023  0.52797850  1.0
  P  P6593  1  0.60195649  0.99820737  0.52797850  1.0
  P  P6594  1  0.71306760  0.14106451  0.52797850  1.0
  P  P6595  1  0.71306760  0.28392165  0.52797850  1.0
  P  P6596  1  0.71306760  0.42677880  0.52797850  1.0
  P  P6597  1  0.71306760  0.56963594  0.52797850  1.0
  P  P6598  1  0.71306760  0.71249308  0.52797850  1.0
  P  P6599  1  0.71306760  0.85535023  0.52797850  1.0
  P  P6600  1  0.71306760  0.99820737  0.52797850  1.0
  P  P6601  1  0.82417871  0.14106451  0.52797850  1.0
  P  P6602  1  0.82417871  0.28392165  0.52797850  1.0
  P  P6603  1  0.82417871  0.42677880  0.52797850  1.0
  P  P6604  1  0.82417871  0.56963594  0.52797850  1.0
  P  P6605  1  0.82417871  0.71249308  0.52797850  1.0
  P  P6606  1  0.82417871  0.85535023  0.52797850  1.0
  P  P6607  1  0.82417871  0.99820737  0.52797850  1.0
  P  P6608  1  0.93528982  0.14106451  0.52797850  1.0
  P  P6609  1  0.93528982  0.28392165  0.52797850  1.0
  P  P6610  1  0.93528982  0.42677880  0.52797850  1.0
  P  P6611  1  0.93528982  0.56963594  0.52797850  1.0
  P  P6612  1  0.93528982  0.71249308  0.52797850  1.0
  P  P6613  1  0.93528982  0.85535023  0.52797850  1.0
  P  P6614  1  0.93528982  0.99820737  0.52797850  1.0
  P  P6615  1  0.03537497  0.04281011  0.54711280  1.0
  P  P6616  1  0.03537497  0.18566725  0.54711280  1.0
  P  P6617  1  0.03537497  0.32852439  0.54711280  1.0
  P  P6618  1  0.03537497  0.47138154  0.54711280  1.0
  P  P6619  1  0.03537497  0.61423868  0.54711280  1.0
  P  P6620  1  0.03537497  0.75709582  0.54711280  1.0
  P  P6621  1  0.03537497  0.89995297  0.54711280  1.0
  P  P6622  1  0.14648608  0.04281011  0.54711280  1.0
  P  P6623  1  0.14648608  0.18566725  0.54711280  1.0
  P  P6624  1  0.14648608  0.32852439  0.54711280  1.0
  P  P6625  1  0.14648608  0.47138154  0.54711280  1.0
  P  P6626  1  0.14648608  0.61423868  0.54711280  1.0
  P  P6627  1  0.14648608  0.75709582  0.54711280  1.0
  P  P6628  1  0.14648608  0.89995297  0.54711280  1.0
  P  P6629  1  0.25759719  0.04281011  0.54711280  1.0
  P  P6630  1  0.25759719  0.18566725  0.54711280  1.0
  P  P6631  1  0.25759719  0.32852439  0.54711280  1.0
  P  P6632  1  0.25759719  0.47138154  0.54711280  1.0
  P  P6633  1  0.25759719  0.61423868  0.54711280  1.0
  P  P6634  1  0.25759719  0.75709582  0.54711280  1.0
  P  P6635  1  0.25759719  0.89995297  0.54711280  1.0
  P  P6636  1  0.36870830  0.04281011  0.54711280  1.0
  P  P6637  1  0.36870830  0.18566725  0.54711280  1.0
  P  P6638  1  0.36870830  0.32852439  0.54711280  1.0
  P  P6639  1  0.36870830  0.47138154  0.54711280  1.0
  P  P6640  1  0.36870830  0.61423868  0.54711280  1.0
  P  P6641  1  0.36870830  0.75709582  0.54711280  1.0
  P  P6642  1  0.36870830  0.89995297  0.54711280  1.0
  P  P6643  1  0.47981942  0.04281011  0.54711280  1.0
  P  P6644  1  0.47981942  0.18566725  0.54711280  1.0
  P  P6645  1  0.47981942  0.32852439  0.54711280  1.0
  P  P6646  1  0.47981942  0.47138154  0.54711280  1.0
  P  P6647  1  0.47981942  0.61423868  0.54711280  1.0
  P  P6648  1  0.47981942  0.75709582  0.54711280  1.0
  P  P6649  1  0.47981942  0.89995297  0.54711280  1.0
  P  P6650  1  0.59093053  0.04281011  0.54711280  1.0
  P  P6651  1  0.59093053  0.18566725  0.54711280  1.0
  P  P6652  1  0.59093053  0.32852439  0.54711280  1.0
  P  P6653  1  0.59093053  0.47138154  0.54711280  1.0
  P  P6654  1  0.59093053  0.61423868  0.54711280  1.0
  P  P6655  1  0.59093053  0.75709582  0.54711280  1.0
  P  P6656  1  0.59093053  0.89995297  0.54711280  1.0
  P  P6657  1  0.70204164  0.04281011  0.54711280  1.0
  P  P6658  1  0.70204164  0.18566725  0.54711280  1.0
  P  P6659  1  0.70204164  0.32852439  0.54711280  1.0
  P  P6660  1  0.70204164  0.47138154  0.54711280  1.0
  P  P6661  1  0.70204164  0.61423868  0.54711280  1.0
  P  P6662  1  0.70204164  0.75709582  0.54711280  1.0
  P  P6663  1  0.70204164  0.89995297  0.54711280  1.0
  P  P6664  1  0.81315275  0.04281011  0.54711280  1.0
  P  P6665  1  0.81315275  0.18566725  0.54711280  1.0
  P  P6666  1  0.81315275  0.32852439  0.54711280  1.0
  P  P6667  1  0.81315275  0.47138154  0.54711280  1.0
  P  P6668  1  0.81315275  0.61423868  0.54711280  1.0
  P  P6669  1  0.81315275  0.75709582  0.54711280  1.0
  P  P6670  1  0.81315275  0.89995297  0.54711280  1.0
  P  P6671  1  0.92426386  0.04281011  0.54711280  1.0
  P  P6672  1  0.92426386  0.18566725  0.54711280  1.0
  P  P6673  1  0.92426386  0.32852439  0.54711280  1.0
  P  P6674  1  0.92426386  0.47138154  0.54711280  1.0
  P  P6675  1  0.92426386  0.61423868  0.54711280  1.0
  P  P6676  1  0.92426386  0.75709582  0.54711280  1.0
  P  P6677  1  0.92426386  0.89995297  0.54711280  1.0
  P  P6678  1  0.05653899  0.05641555  0.59473184  1.0
  P  P6679  1  0.05653899  0.19927269  0.59473184  1.0
  P  P6680  1  0.05653899  0.34212984  0.59473184  1.0
  P  P6681  1  0.05653899  0.48498698  0.59473184  1.0
  P  P6682  1  0.05653899  0.62784412  0.59473184  1.0
  P  P6683  1  0.05653899  0.77070126  0.59473184  1.0
  P  P6684  1  0.05653899  0.91355841  0.59473184  1.0
  P  P6685  1  0.16765010  0.05641555  0.59473184  1.0
  P  P6686  1  0.16765010  0.19927269  0.59473184  1.0
  P  P6687  1  0.16765010  0.34212984  0.59473184  1.0
  P  P6688  1  0.16765010  0.48498698  0.59473184  1.0
  P  P6689  1  0.16765010  0.62784412  0.59473184  1.0
  P  P6690  1  0.16765010  0.77070126  0.59473184  1.0
  P  P6691  1  0.16765010  0.91355841  0.59473184  1.0
  P  P6692  1  0.27876121  0.05641555  0.59473184  1.0
  P  P6693  1  0.27876121  0.19927269  0.59473184  1.0
  P  P6694  1  0.27876121  0.34212984  0.59473184  1.0
  P  P6695  1  0.27876121  0.48498698  0.59473184  1.0
  P  P6696  1  0.27876121  0.62784412  0.59473184  1.0
  P  P6697  1  0.27876121  0.77070126  0.59473184  1.0
  P  P6698  1  0.27876121  0.91355841  0.59473184  1.0
  P  P6699  1  0.38987233  0.05641555  0.59473184  1.0
  P  P6700  1  0.38987233  0.19927269  0.59473184  1.0
  P  P6701  1  0.38987233  0.34212984  0.59473184  1.0
  P  P6702  1  0.38987233  0.48498698  0.59473184  1.0
  P  P6703  1  0.38987233  0.62784412  0.59473184  1.0
  P  P6704  1  0.38987233  0.77070126  0.59473184  1.0
  P  P6705  1  0.38987233  0.91355841  0.59473184  1.0
  P  P6706  1  0.50098344  0.05641555  0.59473184  1.0
  P  P6707  1  0.50098344  0.19927269  0.59473184  1.0
  P  P6708  1  0.50098344  0.34212984  0.59473184  1.0
  P  P6709  1  0.50098344  0.48498698  0.59473184  1.0
  P  P6710  1  0.50098344  0.62784412  0.59473184  1.0
  P  P6711  1  0.50098344  0.77070126  0.59473184  1.0
  P  P6712  1  0.50098344  0.91355841  0.59473184  1.0
  P  P6713  1  0.61209455  0.05641555  0.59473184  1.0
  P  P6714  1  0.61209455  0.19927269  0.59473184  1.0
  P  P6715  1  0.61209455  0.34212984  0.59473184  1.0
  P  P6716  1  0.61209455  0.48498698  0.59473184  1.0
  P  P6717  1  0.61209455  0.62784412  0.59473184  1.0
  P  P6718  1  0.61209455  0.77070126  0.59473184  1.0
  P  P6719  1  0.61209455  0.91355841  0.59473184  1.0
  P  P6720  1  0.72320566  0.05641555  0.59473184  1.0
  P  P6721  1  0.72320566  0.19927269  0.59473184  1.0
  P  P6722  1  0.72320566  0.34212984  0.59473184  1.0
  P  P6723  1  0.72320566  0.48498698  0.59473184  1.0
  P  P6724  1  0.72320566  0.62784412  0.59473184  1.0
  P  P6725  1  0.72320566  0.77070126  0.59473184  1.0
  P  P6726  1  0.72320566  0.91355841  0.59473184  1.0
  P  P6727  1  0.83431677  0.05641555  0.59473184  1.0
  P  P6728  1  0.83431677  0.19927269  0.59473184  1.0
  P  P6729  1  0.83431677  0.34212984  0.59473184  1.0
  P  P6730  1  0.83431677  0.48498698  0.59473184  1.0
  P  P6731  1  0.83431677  0.62784412  0.59473184  1.0
  P  P6732  1  0.83431677  0.77070126  0.59473184  1.0
  P  P6733  1  0.83431677  0.91355841  0.59473184  1.0
  P  P6734  1  0.94542788  0.05641555  0.59473184  1.0
  P  P6735  1  0.94542788  0.19927269  0.59473184  1.0
  P  P6736  1  0.94542788  0.34212984  0.59473184  1.0
  P  P6737  1  0.94542788  0.48498698  0.59473184  1.0
  P  P6738  1  0.94542788  0.62784412  0.59473184  1.0
  P  P6739  1  0.94542788  0.77070126  0.59473184  1.0
  P  P6740  1  0.94542788  0.91355841  0.59473184  1.0
  P  P6741  1  0.07770301  0.07002099  0.64235089  1.0
  P  P6742  1  0.07770301  0.21287814  0.64235089  1.0
  P  P6743  1  0.07770301  0.35573528  0.64235089  1.0
  P  P6744  1  0.07770301  0.49859242  0.64235089  1.0
  P  P6745  1  0.07770301  0.64144956  0.64235089  1.0
  P  P6746  1  0.07770301  0.78430671  0.64235089  1.0
  P  P6747  1  0.07770301  0.92716385  0.64235089  1.0
  P  P6748  1  0.18881412  0.07002099  0.64235089  1.0
  P  P6749  1  0.18881412  0.21287814  0.64235089  1.0
  P  P6750  1  0.18881412  0.35573528  0.64235089  1.0
  P  P6751  1  0.18881412  0.49859242  0.64235089  1.0
  P  P6752  1  0.18881412  0.64144956  0.64235089  1.0
  P  P6753  1  0.18881412  0.78430671  0.64235089  1.0
  P  P6754  1  0.18881412  0.92716385  0.64235089  1.0
  P  P6755  1  0.29992524  0.07002099  0.64235089  1.0
  P  P6756  1  0.29992524  0.21287814  0.64235089  1.0
  P  P6757  1  0.29992524  0.35573528  0.64235089  1.0
  P  P6758  1  0.29992524  0.49859242  0.64235089  1.0
  P  P6759  1  0.29992524  0.64144956  0.64235089  1.0
  P  P6760  1  0.29992524  0.78430671  0.64235089  1.0
  P  P6761  1  0.29992524  0.92716385  0.64235089  1.0
  P  P6762  1  0.41103635  0.07002099  0.64235089  1.0
  P  P6763  1  0.41103635  0.21287814  0.64235089  1.0
  P  P6764  1  0.41103635  0.35573528  0.64235089  1.0
  P  P6765  1  0.41103635  0.49859242  0.64235089  1.0
  P  P6766  1  0.41103635  0.64144956  0.64235089  1.0
  P  P6767  1  0.41103635  0.78430671  0.64235089  1.0
  P  P6768  1  0.41103635  0.92716385  0.64235089  1.0
  P  P6769  1  0.52214746  0.07002099  0.64235089  1.0
  P  P6770  1  0.52214746  0.21287814  0.64235089  1.0
  P  P6771  1  0.52214746  0.35573528  0.64235089  1.0
  P  P6772  1  0.52214746  0.49859242  0.64235089  1.0
  P  P6773  1  0.52214746  0.64144956  0.64235089  1.0
  P  P6774  1  0.52214746  0.78430671  0.64235089  1.0
  P  P6775  1  0.52214746  0.92716385  0.64235089  1.0
  P  P6776  1  0.63325857  0.07002099  0.64235089  1.0
  P  P6777  1  0.63325857  0.21287814  0.64235089  1.0
  P  P6778  1  0.63325857  0.35573528  0.64235089  1.0
  P  P6779  1  0.63325857  0.49859242  0.64235089  1.0
  P  P6780  1  0.63325857  0.64144956  0.64235089  1.0
  P  P6781  1  0.63325857  0.78430671  0.64235089  1.0
  P  P6782  1  0.63325857  0.92716385  0.64235089  1.0
  P  P6783  1  0.74436968  0.07002099  0.64235089  1.0
  P  P6784  1  0.74436968  0.21287814  0.64235089  1.0
  P  P6785  1  0.74436968  0.35573528  0.64235089  1.0
  P  P6786  1  0.74436968  0.49859242  0.64235089  1.0
  P  P6787  1  0.74436968  0.64144956  0.64235089  1.0
  P  P6788  1  0.74436968  0.78430671  0.64235089  1.0
  P  P6789  1  0.74436968  0.92716385  0.64235089  1.0
  P  P6790  1  0.85548079  0.07002099  0.64235089  1.0
  P  P6791  1  0.85548079  0.21287814  0.64235089  1.0
  P  P6792  1  0.85548079  0.35573528  0.64235089  1.0
  P  P6793  1  0.85548079  0.49859242  0.64235089  1.0
  P  P6794  1  0.85548079  0.64144956  0.64235089  1.0
  P  P6795  1  0.85548079  0.78430671  0.64235089  1.0
  P  P6796  1  0.85548079  0.92716385  0.64235089  1.0
  P  P6797  1  0.96659190  0.07002099  0.64235089  1.0
  P  P6798  1  0.96659190  0.21287814  0.64235089  1.0
  P  P6799  1  0.96659190  0.35573528  0.64235089  1.0
  P  P6800  1  0.96659190  0.49859242  0.64235089  1.0
  P  P6801  1  0.96659190  0.64144956  0.64235089  1.0
  P  P6802  1  0.96659190  0.78430671  0.64235089  1.0
  P  P6803  1  0.96659190  0.92716385  0.64235089  1.0
  P  P6804  1  0.04510352  0.10890212  0.57709939  1.0
  P  P6805  1  0.04510352  0.25175926  0.57709939  1.0
  P  P6806  1  0.04510352  0.39461641  0.57709939  1.0
  P  P6807  1  0.04510352  0.53747355  0.57709939  1.0
  P  P6808  1  0.04510352  0.68033069  0.57709939  1.0
  P  P6809  1  0.04510352  0.82318783  0.57709939  1.0
  P  P6810  1  0.04510352  0.96604498  0.57709939  1.0
  P  P6811  1  0.15621463  0.10890212  0.57709939  1.0
  P  P6812  1  0.15621463  0.25175926  0.57709939  1.0
  P  P6813  1  0.15621463  0.39461641  0.57709939  1.0
  P  P6814  1  0.15621463  0.53747355  0.57709939  1.0
  P  P6815  1  0.15621463  0.68033069  0.57709939  1.0
  P  P6816  1  0.15621463  0.82318783  0.57709939  1.0
  P  P6817  1  0.15621463  0.96604498  0.57709939  1.0
  P  P6818  1  0.26732574  0.10890212  0.57709939  1.0
  P  P6819  1  0.26732574  0.25175926  0.57709939  1.0
  P  P6820  1  0.26732574  0.39461641  0.57709939  1.0
  P  P6821  1  0.26732574  0.53747355  0.57709939  1.0
  P  P6822  1  0.26732574  0.68033069  0.57709939  1.0
  P  P6823  1  0.26732574  0.82318783  0.57709939  1.0
  P  P6824  1  0.26732574  0.96604498  0.57709939  1.0
  P  P6825  1  0.37843685  0.10890212  0.57709939  1.0
  P  P6826  1  0.37843685  0.25175926  0.57709939  1.0
  P  P6827  1  0.37843685  0.39461641  0.57709939  1.0
  P  P6828  1  0.37843685  0.53747355  0.57709939  1.0
  P  P6829  1  0.37843685  0.68033069  0.57709939  1.0
  P  P6830  1  0.37843685  0.82318783  0.57709939  1.0
  P  P6831  1  0.37843685  0.96604498  0.57709939  1.0
  P  P6832  1  0.48954796  0.10890212  0.57709939  1.0
  P  P6833  1  0.48954796  0.25175926  0.57709939  1.0
  P  P6834  1  0.48954796  0.39461641  0.57709939  1.0
  P  P6835  1  0.48954796  0.53747355  0.57709939  1.0
  P  P6836  1  0.48954796  0.68033069  0.57709939  1.0
  P  P6837  1  0.48954796  0.82318783  0.57709939  1.0
  P  P6838  1  0.48954796  0.96604498  0.57709939  1.0
  P  P6839  1  0.60065908  0.10890212  0.57709939  1.0
  P  P6840  1  0.60065908  0.25175926  0.57709939  1.0
  P  P6841  1  0.60065908  0.39461641  0.57709939  1.0
  P  P6842  1  0.60065908  0.53747355  0.57709939  1.0
  P  P6843  1  0.60065908  0.68033069  0.57709939  1.0
  P  P6844  1  0.60065908  0.82318783  0.57709939  1.0
  P  P6845  1  0.60065908  0.96604498  0.57709939  1.0
  P  P6846  1  0.71177019  0.10890212  0.57709939  1.0
  P  P6847  1  0.71177019  0.25175926  0.57709939  1.0
  P  P6848  1  0.71177019  0.39461641  0.57709939  1.0
  P  P6849  1  0.71177019  0.53747355  0.57709939  1.0
  P  P6850  1  0.71177019  0.68033069  0.57709939  1.0
  P  P6851  1  0.71177019  0.82318783  0.57709939  1.0
  P  P6852  1  0.71177019  0.96604498  0.57709939  1.0
  P  P6853  1  0.82288130  0.10890212  0.57709939  1.0
  P  P6854  1  0.82288130  0.25175926  0.57709939  1.0
  P  P6855  1  0.82288130  0.39461641  0.57709939  1.0
  P  P6856  1  0.82288130  0.53747355  0.57709939  1.0
  P  P6857  1  0.82288130  0.68033069  0.57709939  1.0
  P  P6858  1  0.82288130  0.82318783  0.57709939  1.0
  P  P6859  1  0.82288130  0.96604498  0.57709939  1.0
  P  P6860  1  0.93399241  0.10890212  0.57709939  1.0
  P  P6861  1  0.93399241  0.25175926  0.57709939  1.0
  P  P6862  1  0.93399241  0.39461641  0.57709939  1.0
  P  P6863  1  0.93399241  0.53747355  0.57709939  1.0
  P  P6864  1  0.93399241  0.68033069  0.57709939  1.0
  P  P6865  1  0.93399241  0.82318783  0.57709939  1.0
  P  P6866  1  0.93399241  0.96604498  0.57709939  1.0
  P  P6867  1  0.06626754  0.12250756  0.62471844  1.0
  P  P6868  1  0.06626754  0.26536470  0.62471844  1.0
  P  P6869  1  0.06626754  0.40822185  0.62471844  1.0
  P  P6870  1  0.06626754  0.55107899  0.62471844  1.0
  P  P6871  1  0.06626754  0.69393613  0.62471844  1.0
  P  P6872  1  0.06626754  0.83679328  0.62471844  1.0
  P  P6873  1  0.06626754  0.97965042  0.62471844  1.0
  P  P6874  1  0.17737865  0.12250756  0.62471844  1.0
  P  P6875  1  0.17737865  0.26536470  0.62471844  1.0
  P  P6876  1  0.17737865  0.40822185  0.62471844  1.0
  P  P6877  1  0.17737865  0.55107899  0.62471844  1.0
  P  P6878  1  0.17737865  0.69393613  0.62471844  1.0
  P  P6879  1  0.17737865  0.83679328  0.62471844  1.0
  P  P6880  1  0.17737865  0.97965042  0.62471844  1.0
  P  P6881  1  0.28848976  0.12250756  0.62471844  1.0
  P  P6882  1  0.28848976  0.26536470  0.62471844  1.0
  P  P6883  1  0.28848976  0.40822185  0.62471844  1.0
  P  P6884  1  0.28848976  0.55107899  0.62471844  1.0
  P  P6885  1  0.28848976  0.69393613  0.62471844  1.0
  P  P6886  1  0.28848976  0.83679328  0.62471844  1.0
  P  P6887  1  0.28848976  0.97965042  0.62471844  1.0
  P  P6888  1  0.39960088  0.12250756  0.62471844  1.0
  P  P6889  1  0.39960088  0.26536470  0.62471844  1.0
  P  P6890  1  0.39960088  0.40822185  0.62471844  1.0
  P  P6891  1  0.39960088  0.55107899  0.62471844  1.0
  P  P6892  1  0.39960088  0.69393613  0.62471844  1.0
  P  P6893  1  0.39960088  0.83679328  0.62471844  1.0
  P  P6894  1  0.39960088  0.97965042  0.62471844  1.0
  P  P6895  1  0.51071199  0.12250756  0.62471844  1.0
  P  P6896  1  0.51071199  0.26536470  0.62471844  1.0
  P  P6897  1  0.51071199  0.40822185  0.62471844  1.0
  P  P6898  1  0.51071199  0.55107899  0.62471844  1.0
  P  P6899  1  0.51071199  0.69393613  0.62471844  1.0
  P  P6900  1  0.51071199  0.83679328  0.62471844  1.0
  P  P6901  1  0.51071199  0.97965042  0.62471844  1.0
  P  P6902  1  0.62182310  0.12250756  0.62471844  1.0
  P  P6903  1  0.62182310  0.26536470  0.62471844  1.0
  P  P6904  1  0.62182310  0.40822185  0.62471844  1.0
  P  P6905  1  0.62182310  0.55107899  0.62471844  1.0
  P  P6906  1  0.62182310  0.69393613  0.62471844  1.0
  P  P6907  1  0.62182310  0.83679328  0.62471844  1.0
  P  P6908  1  0.62182310  0.97965042  0.62471844  1.0
  P  P6909  1  0.73293421  0.12250756  0.62471844  1.0
  P  P6910  1  0.73293421  0.26536470  0.62471844  1.0
  P  P6911  1  0.73293421  0.40822185  0.62471844  1.0
  P  P6912  1  0.73293421  0.55107899  0.62471844  1.0
  P  P6913  1  0.73293421  0.69393613  0.62471844  1.0
  P  P6914  1  0.73293421  0.83679328  0.62471844  1.0
  P  P6915  1  0.73293421  0.97965042  0.62471844  1.0
  P  P6916  1  0.84404532  0.12250756  0.62471844  1.0
  P  P6917  1  0.84404532  0.26536470  0.62471844  1.0
  P  P6918  1  0.84404532  0.40822185  0.62471844  1.0
  P  P6919  1  0.84404532  0.55107899  0.62471844  1.0
  P  P6920  1  0.84404532  0.69393613  0.62471844  1.0
  P  P6921  1  0.84404532  0.83679328  0.62471844  1.0
  P  P6922  1  0.84404532  0.97965042  0.62471844  1.0
  P  P6923  1  0.95515643  0.12250756  0.62471844  1.0
  P  P6924  1  0.95515643  0.26536470  0.62471844  1.0
  P  P6925  1  0.95515643  0.40822185  0.62471844  1.0
  P  P6926  1  0.95515643  0.55107899  0.62471844  1.0
  P  P6927  1  0.95515643  0.69393613  0.62471844  1.0
  P  P6928  1  0.95515643  0.83679328  0.62471844  1.0
  P  P6929  1  0.95515643  0.97965042  0.62471844  1.0
  P  P6930  1  0.02393950  0.09529668  0.52948035  1.0
  P  P6931  1  0.02393950  0.23815382  0.52948035  1.0
  P  P6932  1  0.02393950  0.38101096  0.52948035  1.0
  P  P6933  1  0.02393950  0.52386811  0.52948035  1.0
  P  P6934  1  0.02393950  0.66672525  0.52948035  1.0
  P  P6935  1  0.02393950  0.80958239  0.52948035  1.0
  P  P6936  1  0.02393950  0.95243953  0.52948035  1.0
  P  P6937  1  0.13505061  0.09529668  0.52948035  1.0
  P  P6938  1  0.13505061  0.23815382  0.52948035  1.0
  P  P6939  1  0.13505061  0.38101096  0.52948035  1.0
  P  P6940  1  0.13505061  0.52386811  0.52948035  1.0
  P  P6941  1  0.13505061  0.66672525  0.52948035  1.0
  P  P6942  1  0.13505061  0.80958239  0.52948035  1.0
  P  P6943  1  0.13505061  0.95243953  0.52948035  1.0
  P  P6944  1  0.24616172  0.09529668  0.52948035  1.0
  P  P6945  1  0.24616172  0.23815382  0.52948035  1.0
  P  P6946  1  0.24616172  0.38101096  0.52948035  1.0
  P  P6947  1  0.24616172  0.52386811  0.52948035  1.0
  P  P6948  1  0.24616172  0.66672525  0.52948035  1.0
  P  P6949  1  0.24616172  0.80958239  0.52948035  1.0
  P  P6950  1  0.24616172  0.95243953  0.52948035  1.0
  P  P6951  1  0.35727283  0.09529668  0.52948035  1.0
  P  P6952  1  0.35727283  0.23815382  0.52948035  1.0
  P  P6953  1  0.35727283  0.38101096  0.52948035  1.0
  P  P6954  1  0.35727283  0.52386811  0.52948035  1.0
  P  P6955  1  0.35727283  0.66672525  0.52948035  1.0
  P  P6956  1  0.35727283  0.80958239  0.52948035  1.0
  P  P6957  1  0.35727283  0.95243953  0.52948035  1.0
  P  P6958  1  0.46838394  0.09529668  0.52948035  1.0
  P  P6959  1  0.46838394  0.23815382  0.52948035  1.0
  P  P6960  1  0.46838394  0.38101096  0.52948035  1.0
  P  P6961  1  0.46838394  0.52386811  0.52948035  1.0
  P  P6962  1  0.46838394  0.66672525  0.52948035  1.0
  P  P6963  1  0.46838394  0.80958239  0.52948035  1.0
  P  P6964  1  0.46838394  0.95243953  0.52948035  1.0
  P  P6965  1  0.57949505  0.09529668  0.52948035  1.0
  P  P6966  1  0.57949505  0.23815382  0.52948035  1.0
  P  P6967  1  0.57949505  0.38101096  0.52948035  1.0
  P  P6968  1  0.57949505  0.52386811  0.52948035  1.0
  P  P6969  1  0.57949505  0.66672525  0.52948035  1.0
  P  P6970  1  0.57949505  0.80958239  0.52948035  1.0
  P  P6971  1  0.57949505  0.95243953  0.52948035  1.0
  P  P6972  1  0.69060617  0.09529668  0.52948035  1.0
  P  P6973  1  0.69060617  0.23815382  0.52948035  1.0
  P  P6974  1  0.69060617  0.38101096  0.52948035  1.0
  P  P6975  1  0.69060617  0.52386811  0.52948035  1.0
  P  P6976  1  0.69060617  0.66672525  0.52948035  1.0
  P  P6977  1  0.69060617  0.80958239  0.52948035  1.0
  P  P6978  1  0.69060617  0.95243953  0.52948035  1.0
  P  P6979  1  0.80171728  0.09529668  0.52948035  1.0
  P  P6980  1  0.80171728  0.23815382  0.52948035  1.0
  P  P6981  1  0.80171728  0.38101096  0.52948035  1.0
  P  P6982  1  0.80171728  0.52386811  0.52948035  1.0
  P  P6983  1  0.80171728  0.66672525  0.52948035  1.0
  P  P6984  1  0.80171728  0.80958239  0.52948035  1.0
  P  P6985  1  0.80171728  0.95243953  0.52948035  1.0
  P  P6986  1  0.91282839  0.09529668  0.52948035  1.0
  P  P6987  1  0.91282839  0.23815382  0.52948035  1.0
  P  P6988  1  0.91282839  0.38101096  0.52948035  1.0
  P  P6989  1  0.91282839  0.52386811  0.52948035  1.0
  P  P6990  1  0.91282839  0.66672525  0.52948035  1.0
  P  P6991  1  0.91282839  0.80958239  0.52948035  1.0
  P  P6992  1  0.91282839  0.95243953  0.52948035  1.0
  P  P6993  1  0.05783641  0.08857794  0.54561095  1.0
  P  P6994  1  0.05783641  0.23143509  0.54561095  1.0
  P  P6995  1  0.05783641  0.37429223  0.54561095  1.0
  P  P6996  1  0.05783641  0.51714937  0.54561095  1.0
  P  P6997  1  0.05783641  0.66000651  0.54561095  1.0
  P  P6998  1  0.05783641  0.80286366  0.54561095  1.0
  P  P6999  1  0.05783641  0.94572080  0.54561095  1.0
  P  P7000  1  0.16894752  0.08857794  0.54561095  1.0
  P  P7001  1  0.16894752  0.23143509  0.54561095  1.0
  P  P7002  1  0.16894752  0.37429223  0.54561095  1.0
  P  P7003  1  0.16894752  0.51714937  0.54561095  1.0
  P  P7004  1  0.16894752  0.66000651  0.54561095  1.0
  P  P7005  1  0.16894752  0.80286366  0.54561095  1.0
  P  P7006  1  0.16894752  0.94572080  0.54561095  1.0
  P  P7007  1  0.28005863  0.08857794  0.54561095  1.0
  P  P7008  1  0.28005863  0.23143509  0.54561095  1.0
  P  P7009  1  0.28005863  0.37429223  0.54561095  1.0
  P  P7010  1  0.28005863  0.51714937  0.54561095  1.0
  P  P7011  1  0.28005863  0.66000651  0.54561095  1.0
  P  P7012  1  0.28005863  0.80286366  0.54561095  1.0
  P  P7013  1  0.28005863  0.94572080  0.54561095  1.0
  P  P7014  1  0.39116974  0.08857794  0.54561095  1.0
  P  P7015  1  0.39116974  0.23143509  0.54561095  1.0
  P  P7016  1  0.39116974  0.37429223  0.54561095  1.0
  P  P7017  1  0.39116974  0.51714937  0.54561095  1.0
  P  P7018  1  0.39116974  0.66000651  0.54561095  1.0
  P  P7019  1  0.39116974  0.80286366  0.54561095  1.0
  P  P7020  1  0.39116974  0.94572080  0.54561095  1.0
  P  P7021  1  0.50228085  0.08857794  0.54561095  1.0
  P  P7022  1  0.50228085  0.23143509  0.54561095  1.0
  P  P7023  1  0.50228085  0.37429223  0.54561095  1.0
  P  P7024  1  0.50228085  0.51714937  0.54561095  1.0
  P  P7025  1  0.50228085  0.66000651  0.54561095  1.0
  P  P7026  1  0.50228085  0.80286366  0.54561095  1.0
  P  P7027  1  0.50228085  0.94572080  0.54561095  1.0
  P  P7028  1  0.61339196  0.08857794  0.54561095  1.0
  P  P7029  1  0.61339196  0.23143509  0.54561095  1.0
  P  P7030  1  0.61339196  0.37429223  0.54561095  1.0
  P  P7031  1  0.61339196  0.51714937  0.54561095  1.0
  P  P7032  1  0.61339196  0.66000651  0.54561095  1.0
  P  P7033  1  0.61339196  0.80286366  0.54561095  1.0
  P  P7034  1  0.61339196  0.94572080  0.54561095  1.0
  P  P7035  1  0.72450307  0.08857794  0.54561095  1.0
  P  P7036  1  0.72450307  0.23143509  0.54561095  1.0
  P  P7037  1  0.72450307  0.37429223  0.54561095  1.0
  P  P7038  1  0.72450307  0.51714937  0.54561095  1.0
  P  P7039  1  0.72450307  0.66000651  0.54561095  1.0
  P  P7040  1  0.72450307  0.80286366  0.54561095  1.0
  P  P7041  1  0.72450307  0.94572080  0.54561095  1.0
  P  P7042  1  0.83561419  0.08857794  0.54561095  1.0
  P  P7043  1  0.83561419  0.23143509  0.54561095  1.0
  P  P7044  1  0.83561419  0.37429223  0.54561095  1.0
  P  P7045  1  0.83561419  0.51714937  0.54561095  1.0
  P  P7046  1  0.83561419  0.66000651  0.54561095  1.0
  P  P7047  1  0.83561419  0.80286366  0.54561095  1.0
  P  P7048  1  0.83561419  0.94572080  0.54561095  1.0
  P  P7049  1  0.94672530  0.08857794  0.54561095  1.0
  P  P7050  1  0.94672530  0.23143509  0.54561095  1.0
  P  P7051  1  0.94672530  0.37429223  0.54561095  1.0
  P  P7052  1  0.94672530  0.51714937  0.54561095  1.0
  P  P7053  1  0.94672530  0.66000651  0.54561095  1.0
  P  P7054  1  0.94672530  0.80286366  0.54561095  1.0
  P  P7055  1  0.94672530  0.94572080  0.54561095  1.0
  P  P7056  1  0.07900043  0.10218338  0.59322999  1.0
  P  P7057  1  0.07900043  0.24504053  0.59322999  1.0
  P  P7058  1  0.07900043  0.38789767  0.59322999  1.0
  P  P7059  1  0.07900043  0.53075481  0.59322999  1.0
  P  P7060  1  0.07900043  0.67361196  0.59322999  1.0
  P  P7061  1  0.07900043  0.81646910  0.59322999  1.0
  P  P7062  1  0.07900043  0.95932624  0.59322999  1.0
  P  P7063  1  0.19011154  0.10218338  0.59322999  1.0
  P  P7064  1  0.19011154  0.24504053  0.59322999  1.0
  P  P7065  1  0.19011154  0.38789767  0.59322999  1.0
  P  P7066  1  0.19011154  0.53075481  0.59322999  1.0
  P  P7067  1  0.19011154  0.67361196  0.59322999  1.0
  P  P7068  1  0.19011154  0.81646910  0.59322999  1.0
  P  P7069  1  0.19011154  0.95932624  0.59322999  1.0
  P  P7070  1  0.30122265  0.10218338  0.59322999  1.0
  P  P7071  1  0.30122265  0.24504053  0.59322999  1.0
  P  P7072  1  0.30122265  0.38789767  0.59322999  1.0
  P  P7073  1  0.30122265  0.53075481  0.59322999  1.0
  P  P7074  1  0.30122265  0.67361196  0.59322999  1.0
  P  P7075  1  0.30122265  0.81646910  0.59322999  1.0
  P  P7076  1  0.30122265  0.95932624  0.59322999  1.0
  P  P7077  1  0.41233376  0.10218338  0.59322999  1.0
  P  P7078  1  0.41233376  0.24504053  0.59322999  1.0
  P  P7079  1  0.41233376  0.38789767  0.59322999  1.0
  P  P7080  1  0.41233376  0.53075481  0.59322999  1.0
  P  P7081  1  0.41233376  0.67361196  0.59322999  1.0
  P  P7082  1  0.41233376  0.81646910  0.59322999  1.0
  P  P7083  1  0.41233376  0.95932624  0.59322999  1.0
  P  P7084  1  0.52344487  0.10218338  0.59322999  1.0
  P  P7085  1  0.52344487  0.24504053  0.59322999  1.0
  P  P7086  1  0.52344487  0.38789767  0.59322999  1.0
  P  P7087  1  0.52344487  0.53075481  0.59322999  1.0
  P  P7088  1  0.52344487  0.67361196  0.59322999  1.0
  P  P7089  1  0.52344487  0.81646910  0.59322999  1.0
  P  P7090  1  0.52344487  0.95932624  0.59322999  1.0
  P  P7091  1  0.63455598  0.10218338  0.59322999  1.0
  P  P7092  1  0.63455598  0.24504053  0.59322999  1.0
  P  P7093  1  0.63455598  0.38789767  0.59322999  1.0
  P  P7094  1  0.63455598  0.53075481  0.59322999  1.0
  P  P7095  1  0.63455598  0.67361196  0.59322999  1.0
  P  P7096  1  0.63455598  0.81646910  0.59322999  1.0
  P  P7097  1  0.63455598  0.95932624  0.59322999  1.0
  P  P7098  1  0.74566710  0.10218338  0.59322999  1.0
  P  P7099  1  0.74566710  0.24504053  0.59322999  1.0
  P  P7100  1  0.74566710  0.38789767  0.59322999  1.0
  P  P7101  1  0.74566710  0.53075481  0.59322999  1.0
  P  P7102  1  0.74566710  0.67361196  0.59322999  1.0
  P  P7103  1  0.74566710  0.81646910  0.59322999  1.0
  P  P7104  1  0.74566710  0.95932624  0.59322999  1.0
  P  P7105  1  0.85677821  0.10218338  0.59322999  1.0
  P  P7106  1  0.85677821  0.24504053  0.59322999  1.0
  P  P7107  1  0.85677821  0.38789767  0.59322999  1.0
  P  P7108  1  0.85677821  0.53075481  0.59322999  1.0
  P  P7109  1  0.85677821  0.67361196  0.59322999  1.0
  P  P7110  1  0.85677821  0.81646910  0.59322999  1.0
  P  P7111  1  0.85677821  0.95932624  0.59322999  1.0
  P  P7112  1  0.96788932  0.10218338  0.59322999  1.0
  P  P7113  1  0.96788932  0.24504053  0.59322999  1.0
  P  P7114  1  0.96788932  0.38789767  0.59322999  1.0
  P  P7115  1  0.96788932  0.53075481  0.59322999  1.0
  P  P7116  1  0.96788932  0.67361196  0.59322999  1.0
  P  P7117  1  0.96788932  0.81646910  0.59322999  1.0
  P  P7118  1  0.96788932  0.95932624  0.59322999  1.0
  P  P7119  1  0.10016445  0.11578883  0.64084904  1.0
  P  P7120  1  0.10016445  0.25864597  0.64084904  1.0
  P  P7121  1  0.10016445  0.40150311  0.64084904  1.0
  P  P7122  1  0.10016445  0.54436026  0.64084904  1.0
  P  P7123  1  0.10016445  0.68721740  0.64084904  1.0
  P  P7124  1  0.10016445  0.83007454  0.64084904  1.0
  P  P7125  1  0.10016445  0.97293168  0.64084904  1.0
  P  P7126  1  0.21127556  0.11578883  0.64084904  1.0
  P  P7127  1  0.21127556  0.25864597  0.64084904  1.0
  P  P7128  1  0.21127556  0.40150311  0.64084904  1.0
  P  P7129  1  0.21127556  0.54436026  0.64084904  1.0
  P  P7130  1  0.21127556  0.68721740  0.64084904  1.0
  P  P7131  1  0.21127556  0.83007454  0.64084904  1.0
  P  P7132  1  0.21127556  0.97293168  0.64084904  1.0
  P  P7133  1  0.32238667  0.11578883  0.64084904  1.0
  P  P7134  1  0.32238667  0.25864597  0.64084904  1.0
  P  P7135  1  0.32238667  0.40150311  0.64084904  1.0
  P  P7136  1  0.32238667  0.54436026  0.64084904  1.0
  P  P7137  1  0.32238667  0.68721740  0.64084904  1.0
  P  P7138  1  0.32238667  0.83007454  0.64084904  1.0
  P  P7139  1  0.32238667  0.97293168  0.64084904  1.0
  P  P7140  1  0.43349778  0.11578883  0.64084904  1.0
  P  P7141  1  0.43349778  0.25864597  0.64084904  1.0
  P  P7142  1  0.43349778  0.40150311  0.64084904  1.0
  P  P7143  1  0.43349778  0.54436026  0.64084904  1.0
  P  P7144  1  0.43349778  0.68721740  0.64084904  1.0
  P  P7145  1  0.43349778  0.83007454  0.64084904  1.0
  P  P7146  1  0.43349778  0.97293168  0.64084904  1.0
  P  P7147  1  0.54460889  0.11578883  0.64084904  1.0
  P  P7148  1  0.54460889  0.25864597  0.64084904  1.0
  P  P7149  1  0.54460889  0.40150311  0.64084904  1.0
  P  P7150  1  0.54460889  0.54436026  0.64084904  1.0
  P  P7151  1  0.54460889  0.68721740  0.64084904  1.0
  P  P7152  1  0.54460889  0.83007454  0.64084904  1.0
  P  P7153  1  0.54460889  0.97293168  0.64084904  1.0
  P  P7154  1  0.65572001  0.11578883  0.64084904  1.0
  P  P7155  1  0.65572001  0.25864597  0.64084904  1.0
  P  P7156  1  0.65572001  0.40150311  0.64084904  1.0
  P  P7157  1  0.65572001  0.54436026  0.64084904  1.0
  P  P7158  1  0.65572001  0.68721740  0.64084904  1.0
  P  P7159  1  0.65572001  0.83007454  0.64084904  1.0
  P  P7160  1  0.65572001  0.97293168  0.64084904  1.0
  P  P7161  1  0.76683112  0.11578883  0.64084904  1.0
  P  P7162  1  0.76683112  0.25864597  0.64084904  1.0
  P  P7163  1  0.76683112  0.40150311  0.64084904  1.0
  P  P7164  1  0.76683112  0.54436026  0.64084904  1.0
  P  P7165  1  0.76683112  0.68721740  0.64084904  1.0
  P  P7166  1  0.76683112  0.83007454  0.64084904  1.0
  P  P7167  1  0.76683112  0.97293168  0.64084904  1.0
  P  P7168  1  0.87794223  0.11578883  0.64084904  1.0
  P  P7169  1  0.87794223  0.25864597  0.64084904  1.0
  P  P7170  1  0.87794223  0.40150311  0.64084904  1.0
  P  P7171  1  0.87794223  0.54436026  0.64084904  1.0
  P  P7172  1  0.87794223  0.68721740  0.64084904  1.0
  P  P7173  1  0.87794223  0.83007454  0.64084904  1.0
  P  P7174  1  0.87794223  0.97293168  0.64084904  1.0
  P  P7175  1  0.98905334  0.11578883  0.64084904  1.0
  P  P7176  1  0.98905334  0.25864597  0.64084904  1.0
  P  P7177  1  0.98905334  0.40150311  0.64084904  1.0
  P  P7178  1  0.98905334  0.54436026  0.64084904  1.0
  P  P7179  1  0.98905334  0.68721740  0.64084904  1.0
  P  P7180  1  0.98905334  0.83007454  0.64084904  1.0
  P  P7181  1  0.98905334  0.97293168  0.64084904  1.0
  P  P7182  1  0.10233722  0.02722488  0.58087522  1.0
  P  P7183  1  0.10233722  0.17008202  0.58087522  1.0
  P  P7184  1  0.10233722  0.31293916  0.58087522  1.0
  P  P7185  1  0.10233722  0.45579631  0.58087522  1.0
  P  P7186  1  0.10233722  0.59865345  0.58087522  1.0
  P  P7187  1  0.10233722  0.74151059  0.58087522  1.0
  P  P7188  1  0.10233722  0.88436774  0.58087522  1.0
  P  P7189  1  0.21344833  0.02722488  0.58087522  1.0
  P  P7190  1  0.21344833  0.17008202  0.58087522  1.0
  P  P7191  1  0.21344833  0.31293916  0.58087522  1.0
  P  P7192  1  0.21344833  0.45579631  0.58087522  1.0
  P  P7193  1  0.21344833  0.59865345  0.58087522  1.0
  P  P7194  1  0.21344833  0.74151059  0.58087522  1.0
  P  P7195  1  0.21344833  0.88436774  0.58087522  1.0
  P  P7196  1  0.32455944  0.02722488  0.58087522  1.0
  P  P7197  1  0.32455944  0.17008202  0.58087522  1.0
  P  P7198  1  0.32455944  0.31293916  0.58087522  1.0
  P  P7199  1  0.32455944  0.45579631  0.58087522  1.0
  P  P7200  1  0.32455944  0.59865345  0.58087522  1.0
  P  P7201  1  0.32455944  0.74151059  0.58087522  1.0
  P  P7202  1  0.32455944  0.88436774  0.58087522  1.0
  P  P7203  1  0.43567055  0.02722488  0.58087522  1.0
  P  P7204  1  0.43567055  0.17008202  0.58087522  1.0
  P  P7205  1  0.43567055  0.31293916  0.58087522  1.0
  P  P7206  1  0.43567055  0.45579631  0.58087522  1.0
  P  P7207  1  0.43567055  0.59865345  0.58087522  1.0
  P  P7208  1  0.43567055  0.74151059  0.58087522  1.0
  P  P7209  1  0.43567055  0.88436774  0.58087522  1.0
  P  P7210  1  0.54678167  0.02722488  0.58087522  1.0
  P  P7211  1  0.54678167  0.17008202  0.58087522  1.0
  P  P7212  1  0.54678167  0.31293916  0.58087522  1.0
  P  P7213  1  0.54678167  0.45579631  0.58087522  1.0
  P  P7214  1  0.54678167  0.59865345  0.58087522  1.0
  P  P7215  1  0.54678167  0.74151059  0.58087522  1.0
  P  P7216  1  0.54678167  0.88436774  0.58087522  1.0
  P  P7217  1  0.65789278  0.02722488  0.58087522  1.0
  P  P7218  1  0.65789278  0.17008202  0.58087522  1.0
  P  P7219  1  0.65789278  0.31293916  0.58087522  1.0
  P  P7220  1  0.65789278  0.45579631  0.58087522  1.0
  P  P7221  1  0.65789278  0.59865345  0.58087522  1.0
  P  P7222  1  0.65789278  0.74151059  0.58087522  1.0
  P  P7223  1  0.65789278  0.88436774  0.58087522  1.0
  P  P7224  1  0.76900389  0.02722488  0.58087522  1.0
  P  P7225  1  0.76900389  0.17008202  0.58087522  1.0
  P  P7226  1  0.76900389  0.31293916  0.58087522  1.0
  P  P7227  1  0.76900389  0.45579631  0.58087522  1.0
  P  P7228  1  0.76900389  0.59865345  0.58087522  1.0
  P  P7229  1  0.76900389  0.74151059  0.58087522  1.0
  P  P7230  1  0.76900389  0.88436774  0.58087522  1.0
  P  P7231  1  0.88011500  0.02722488  0.58087522  1.0
  P  P7232  1  0.88011500  0.17008202  0.58087522  1.0
  P  P7233  1  0.88011500  0.31293916  0.58087522  1.0
  P  P7234  1  0.88011500  0.45579631  0.58087522  1.0
  P  P7235  1  0.88011500  0.59865345  0.58087522  1.0
  P  P7236  1  0.88011500  0.74151059  0.58087522  1.0
  P  P7237  1  0.88011500  0.88436774  0.58087522  1.0
  P  P7238  1  0.99122611  0.02722488  0.58087522  1.0
  P  P7239  1  0.99122611  0.17008202  0.58087522  1.0
  P  P7240  1  0.99122611  0.31293916  0.58087522  1.0
  P  P7241  1  0.99122611  0.45579631  0.58087522  1.0
  P  P7242  1  0.99122611  0.59865345  0.58087522  1.0
  P  P7243  1  0.99122611  0.74151059  0.58087522  1.0
  P  P7244  1  0.99122611  0.88436774  0.58087522  1.0
  P  P7245  1  0.01239013  0.04083032  0.62849427  1.0
  P  P7246  1  0.01239013  0.18368746  0.62849427  1.0
  P  P7247  1  0.01239013  0.32654461  0.62849427  1.0
  P  P7248  1  0.01239013  0.46940175  0.62849427  1.0
  P  P7249  1  0.01239013  0.61225889  0.62849427  1.0
  P  P7250  1  0.01239013  0.75511603  0.62849427  1.0
  P  P7251  1  0.01239013  0.89797318  0.62849427  1.0
  P  P7252  1  0.12350124  0.04083032  0.62849427  1.0
  P  P7253  1  0.12350124  0.18368746  0.62849427  1.0
  P  P7254  1  0.12350124  0.32654461  0.62849427  1.0
  P  P7255  1  0.12350124  0.46940175  0.62849427  1.0
  P  P7256  1  0.12350124  0.61225889  0.62849427  1.0
  P  P7257  1  0.12350124  0.75511603  0.62849427  1.0
  P  P7258  1  0.12350124  0.89797318  0.62849427  1.0
  P  P7259  1  0.23461235  0.04083032  0.62849427  1.0
  P  P7260  1  0.23461235  0.18368746  0.62849427  1.0
  P  P7261  1  0.23461235  0.32654461  0.62849427  1.0
  P  P7262  1  0.23461235  0.46940175  0.62849427  1.0
  P  P7263  1  0.23461235  0.61225889  0.62849427  1.0
  P  P7264  1  0.23461235  0.75511603  0.62849427  1.0
  P  P7265  1  0.23461235  0.89797318  0.62849427  1.0
  P  P7266  1  0.34572346  0.04083032  0.62849427  1.0
  P  P7267  1  0.34572346  0.18368746  0.62849427  1.0
  P  P7268  1  0.34572346  0.32654461  0.62849427  1.0
  P  P7269  1  0.34572346  0.46940175  0.62849427  1.0
  P  P7270  1  0.34572346  0.61225889  0.62849427  1.0
  P  P7271  1  0.34572346  0.75511603  0.62849427  1.0
  P  P7272  1  0.34572346  0.89797318  0.62849427  1.0
  P  P7273  1  0.45683458  0.04083032  0.62849427  1.0
  P  P7274  1  0.45683458  0.18368746  0.62849427  1.0
  P  P7275  1  0.45683458  0.32654461  0.62849427  1.0
  P  P7276  1  0.45683458  0.46940175  0.62849427  1.0
  P  P7277  1  0.45683458  0.61225889  0.62849427  1.0
  P  P7278  1  0.45683458  0.75511603  0.62849427  1.0
  P  P7279  1  0.45683458  0.89797318  0.62849427  1.0
  P  P7280  1  0.56794569  0.04083032  0.62849427  1.0
  P  P7281  1  0.56794569  0.18368746  0.62849427  1.0
  P  P7282  1  0.56794569  0.32654461  0.62849427  1.0
  P  P7283  1  0.56794569  0.46940175  0.62849427  1.0
  P  P7284  1  0.56794569  0.61225889  0.62849427  1.0
  P  P7285  1  0.56794569  0.75511603  0.62849427  1.0
  P  P7286  1  0.56794569  0.89797318  0.62849427  1.0
  P  P7287  1  0.67905680  0.04083032  0.62849427  1.0
  P  P7288  1  0.67905680  0.18368746  0.62849427  1.0
  P  P7289  1  0.67905680  0.32654461  0.62849427  1.0
  P  P7290  1  0.67905680  0.46940175  0.62849427  1.0
  P  P7291  1  0.67905680  0.61225889  0.62849427  1.0
  P  P7292  1  0.67905680  0.75511603  0.62849427  1.0
  P  P7293  1  0.67905680  0.89797318  0.62849427  1.0
  P  P7294  1  0.79016791  0.04083032  0.62849427  1.0
  P  P7295  1  0.79016791  0.18368746  0.62849427  1.0
  P  P7296  1  0.79016791  0.32654461  0.62849427  1.0
  P  P7297  1  0.79016791  0.46940175  0.62849427  1.0
  P  P7298  1  0.79016791  0.61225889  0.62849427  1.0
  P  P7299  1  0.79016791  0.75511603  0.62849427  1.0
  P  P7300  1  0.79016791  0.89797318  0.62849427  1.0
  P  P7301  1  0.90127902  0.04083032  0.62849427  1.0
  P  P7302  1  0.90127902  0.18368746  0.62849427  1.0
  P  P7303  1  0.90127902  0.32654461  0.62849427  1.0
  P  P7304  1  0.90127902  0.46940175  0.62849427  1.0
  P  P7305  1  0.90127902  0.61225889  0.62849427  1.0
  P  P7306  1  0.90127902  0.75511603  0.62849427  1.0
  P  P7307  1  0.90127902  0.89797318  0.62849427  1.0
  P  P7308  1  0.08117320  0.01361944  0.53325617  1.0
  P  P7309  1  0.08117320  0.15647658  0.53325617  1.0
  P  P7310  1  0.08117320  0.29933372  0.53325617  1.0
  P  P7311  1  0.08117320  0.44219086  0.53325617  1.0
  P  P7312  1  0.08117320  0.58504801  0.53325617  1.0
  P  P7313  1  0.08117320  0.72790515  0.53325617  1.0
  P  P7314  1  0.08117320  0.87076229  0.53325617  1.0
  P  P7315  1  0.19228431  0.01361944  0.53325617  1.0
  P  P7316  1  0.19228431  0.15647658  0.53325617  1.0
  P  P7317  1  0.19228431  0.29933372  0.53325617  1.0
  P  P7318  1  0.19228431  0.44219086  0.53325617  1.0
  P  P7319  1  0.19228431  0.58504801  0.53325617  1.0
  P  P7320  1  0.19228431  0.72790515  0.53325617  1.0
  P  P7321  1  0.19228431  0.87076229  0.53325617  1.0
  P  P7322  1  0.30339542  0.01361944  0.53325617  1.0
  P  P7323  1  0.30339542  0.15647658  0.53325617  1.0
  P  P7324  1  0.30339542  0.29933372  0.53325617  1.0
  P  P7325  1  0.30339542  0.44219086  0.53325617  1.0
  P  P7326  1  0.30339542  0.58504801  0.53325617  1.0
  P  P7327  1  0.30339542  0.72790515  0.53325617  1.0
  P  P7328  1  0.30339542  0.87076229  0.53325617  1.0
  P  P7329  1  0.41450653  0.01361944  0.53325617  1.0
  P  P7330  1  0.41450653  0.15647658  0.53325617  1.0
  P  P7331  1  0.41450653  0.29933372  0.53325617  1.0
  P  P7332  1  0.41450653  0.44219086  0.53325617  1.0
  P  P7333  1  0.41450653  0.58504801  0.53325617  1.0
  P  P7334  1  0.41450653  0.72790515  0.53325617  1.0
  P  P7335  1  0.41450653  0.87076229  0.53325617  1.0
  P  P7336  1  0.52561764  0.01361944  0.53325617  1.0
  P  P7337  1  0.52561764  0.15647658  0.53325617  1.0
  P  P7338  1  0.52561764  0.29933372  0.53325617  1.0
  P  P7339  1  0.52561764  0.44219086  0.53325617  1.0
  P  P7340  1  0.52561764  0.58504801  0.53325617  1.0
  P  P7341  1  0.52561764  0.72790515  0.53325617  1.0
  P  P7342  1  0.52561764  0.87076229  0.53325617  1.0
  P  P7343  1  0.63672876  0.01361944  0.53325617  1.0
  P  P7344  1  0.63672876  0.15647658  0.53325617  1.0
  P  P7345  1  0.63672876  0.29933372  0.53325617  1.0
  P  P7346  1  0.63672876  0.44219086  0.53325617  1.0
  P  P7347  1  0.63672876  0.58504801  0.53325617  1.0
  P  P7348  1  0.63672876  0.72790515  0.53325617  1.0
  P  P7349  1  0.63672876  0.87076229  0.53325617  1.0
  P  P7350  1  0.74783987  0.01361944  0.53325617  1.0
  P  P7351  1  0.74783987  0.15647658  0.53325617  1.0
  P  P7352  1  0.74783987  0.29933372  0.53325617  1.0
  P  P7353  1  0.74783987  0.44219086  0.53325617  1.0
  P  P7354  1  0.74783987  0.58504801  0.53325617  1.0
  P  P7355  1  0.74783987  0.72790515  0.53325617  1.0
  P  P7356  1  0.74783987  0.87076229  0.53325617  1.0
  P  P7357  1  0.85895098  0.01361944  0.53325617  1.0
  P  P7358  1  0.85895098  0.15647658  0.53325617  1.0
  P  P7359  1  0.85895098  0.29933372  0.53325617  1.0
  P  P7360  1  0.85895098  0.44219086  0.53325617  1.0
  P  P7361  1  0.85895098  0.58504801  0.53325617  1.0
  P  P7362  1  0.85895098  0.72790515  0.53325617  1.0
  P  P7363  1  0.85895098  0.87076229  0.53325617  1.0
  P  P7364  1  0.97006209  0.01361944  0.53325617  1.0
  P  P7365  1  0.97006209  0.15647658  0.53325617  1.0
  P  P7366  1  0.97006209  0.29933372  0.53325617  1.0
  P  P7367  1  0.97006209  0.44219086  0.53325617  1.0
  P  P7368  1  0.97006209  0.58504801  0.53325617  1.0
  P  P7369  1  0.97006209  0.72790515  0.53325617  1.0
  P  P7370  1  0.97006209  0.87076229  0.53325617  1.0
  P  P7371  1  0.00060271  0.02739804  0.54183512  1.0
  P  P7372  1  0.00060271  0.17025518  0.54183512  1.0
  P  P7373  1  0.00060271  0.31311233  0.54183512  1.0
  P  P7374  1  0.00060271  0.45596947  0.54183512  1.0
  P  P7375  1  0.00060271  0.59882661  0.54183512  1.0
  P  P7376  1  0.00060271  0.74168376  0.54183512  1.0
  P  P7377  1  0.00060271  0.88454090  0.54183512  1.0
  P  P7378  1  0.11171382  0.02739804  0.54183512  1.0
  P  P7379  1  0.11171382  0.17025518  0.54183512  1.0
  P  P7380  1  0.11171382  0.31311233  0.54183512  1.0
  P  P7381  1  0.11171382  0.45596947  0.54183512  1.0
  P  P7382  1  0.11171382  0.59882661  0.54183512  1.0
  P  P7383  1  0.11171382  0.74168376  0.54183512  1.0
  P  P7384  1  0.11171382  0.88454090  0.54183512  1.0
  P  P7385  1  0.22282493  0.02739804  0.54183512  1.0
  P  P7386  1  0.22282493  0.17025518  0.54183512  1.0
  P  P7387  1  0.22282493  0.31311233  0.54183512  1.0
  P  P7388  1  0.22282493  0.45596947  0.54183512  1.0
  P  P7389  1  0.22282493  0.59882661  0.54183512  1.0
  P  P7390  1  0.22282493  0.74168376  0.54183512  1.0
  P  P7391  1  0.22282493  0.88454090  0.54183512  1.0
  P  P7392  1  0.33393604  0.02739804  0.54183512  1.0
  P  P7393  1  0.33393604  0.17025518  0.54183512  1.0
  P  P7394  1  0.33393604  0.31311233  0.54183512  1.0
  P  P7395  1  0.33393604  0.45596947  0.54183512  1.0
  P  P7396  1  0.33393604  0.59882661  0.54183512  1.0
  P  P7397  1  0.33393604  0.74168376  0.54183512  1.0
  P  P7398  1  0.33393604  0.88454090  0.54183512  1.0
  P  P7399  1  0.44504715  0.02739804  0.54183512  1.0
  P  P7400  1  0.44504715  0.17025518  0.54183512  1.0
  P  P7401  1  0.44504715  0.31311233  0.54183512  1.0
  P  P7402  1  0.44504715  0.45596947  0.54183512  1.0
  P  P7403  1  0.44504715  0.59882661  0.54183512  1.0
  P  P7404  1  0.44504715  0.74168376  0.54183512  1.0
  P  P7405  1  0.44504715  0.88454090  0.54183512  1.0
  P  P7406  1  0.55615826  0.02739804  0.54183512  1.0
  P  P7407  1  0.55615826  0.17025518  0.54183512  1.0
  P  P7408  1  0.55615826  0.31311233  0.54183512  1.0
  P  P7409  1  0.55615826  0.45596947  0.54183512  1.0
  P  P7410  1  0.55615826  0.59882661  0.54183512  1.0
  P  P7411  1  0.55615826  0.74168376  0.54183512  1.0
  P  P7412  1  0.55615826  0.88454090  0.54183512  1.0
  P  P7413  1  0.66726937  0.02739804  0.54183512  1.0
  P  P7414  1  0.66726937  0.17025518  0.54183512  1.0
  P  P7415  1  0.66726937  0.31311233  0.54183512  1.0
  P  P7416  1  0.66726937  0.45596947  0.54183512  1.0
  P  P7417  1  0.66726937  0.59882661  0.54183512  1.0
  P  P7418  1  0.66726937  0.74168376  0.54183512  1.0
  P  P7419  1  0.66726937  0.88454090  0.54183512  1.0
  P  P7420  1  0.77838048  0.02739804  0.54183512  1.0
  P  P7421  1  0.77838048  0.17025518  0.54183512  1.0
  P  P7422  1  0.77838048  0.31311233  0.54183512  1.0
  P  P7423  1  0.77838048  0.45596947  0.54183512  1.0
  P  P7424  1  0.77838048  0.59882661  0.54183512  1.0
  P  P7425  1  0.77838048  0.74168376  0.54183512  1.0
  P  P7426  1  0.77838048  0.88454090  0.54183512  1.0
  P  P7427  1  0.88949160  0.02739804  0.54183512  1.0
  P  P7428  1  0.88949160  0.17025518  0.54183512  1.0
  P  P7429  1  0.88949160  0.31311233  0.54183512  1.0
  P  P7430  1  0.88949160  0.45596947  0.54183512  1.0
  P  P7431  1  0.88949160  0.59882661  0.54183512  1.0
  P  P7432  1  0.88949160  0.74168376  0.54183512  1.0
  P  P7433  1  0.88949160  0.88454090  0.54183512  1.0
  P  P7434  1  0.02176673  0.04100348  0.58945417  1.0
  P  P7435  1  0.02176673  0.18386063  0.58945417  1.0
  P  P7436  1  0.02176673  0.32671777  0.58945417  1.0
  P  P7437  1  0.02176673  0.46957491  0.58945417  1.0
  P  P7438  1  0.02176673  0.61243205  0.58945417  1.0
  P  P7439  1  0.02176673  0.75528920  0.58945417  1.0
  P  P7440  1  0.02176673  0.89814634  0.58945417  1.0
  P  P7441  1  0.13287784  0.04100348  0.58945417  1.0
  P  P7442  1  0.13287784  0.18386063  0.58945417  1.0
  P  P7443  1  0.13287784  0.32671777  0.58945417  1.0
  P  P7444  1  0.13287784  0.46957491  0.58945417  1.0
  P  P7445  1  0.13287784  0.61243205  0.58945417  1.0
  P  P7446  1  0.13287784  0.75528920  0.58945417  1.0
  P  P7447  1  0.13287784  0.89814634  0.58945417  1.0
  P  P7448  1  0.24398895  0.04100348  0.58945417  1.0
  P  P7449  1  0.24398895  0.18386063  0.58945417  1.0
  P  P7450  1  0.24398895  0.32671777  0.58945417  1.0
  P  P7451  1  0.24398895  0.46957491  0.58945417  1.0
  P  P7452  1  0.24398895  0.61243205  0.58945417  1.0
  P  P7453  1  0.24398895  0.75528920  0.58945417  1.0
  P  P7454  1  0.24398895  0.89814634  0.58945417  1.0
  P  P7455  1  0.35510006  0.04100348  0.58945417  1.0
  P  P7456  1  0.35510006  0.18386063  0.58945417  1.0
  P  P7457  1  0.35510006  0.32671777  0.58945417  1.0
  P  P7458  1  0.35510006  0.46957491  0.58945417  1.0
  P  P7459  1  0.35510006  0.61243205  0.58945417  1.0
  P  P7460  1  0.35510006  0.75528920  0.58945417  1.0
  P  P7461  1  0.35510006  0.89814634  0.58945417  1.0
  P  P7462  1  0.46621117  0.04100348  0.58945417  1.0
  P  P7463  1  0.46621117  0.18386063  0.58945417  1.0
  P  P7464  1  0.46621117  0.32671777  0.58945417  1.0
  P  P7465  1  0.46621117  0.46957491  0.58945417  1.0
  P  P7466  1  0.46621117  0.61243205  0.58945417  1.0
  P  P7467  1  0.46621117  0.75528920  0.58945417  1.0
  P  P7468  1  0.46621117  0.89814634  0.58945417  1.0
  P  P7469  1  0.57732228  0.04100348  0.58945417  1.0
  P  P7470  1  0.57732228  0.18386063  0.58945417  1.0
  P  P7471  1  0.57732228  0.32671777  0.58945417  1.0
  P  P7472  1  0.57732228  0.46957491  0.58945417  1.0
  P  P7473  1  0.57732228  0.61243205  0.58945417  1.0
  P  P7474  1  0.57732228  0.75528920  0.58945417  1.0
  P  P7475  1  0.57732228  0.89814634  0.58945417  1.0
  P  P7476  1  0.68843339  0.04100348  0.58945417  1.0
  P  P7477  1  0.68843339  0.18386063  0.58945417  1.0
  P  P7478  1  0.68843339  0.32671777  0.58945417  1.0
  P  P7479  1  0.68843339  0.46957491  0.58945417  1.0
  P  P7480  1  0.68843339  0.61243205  0.58945417  1.0
  P  P7481  1  0.68843339  0.75528920  0.58945417  1.0
  P  P7482  1  0.68843339  0.89814634  0.58945417  1.0
  P  P7483  1  0.79954451  0.04100348  0.58945417  1.0
  P  P7484  1  0.79954451  0.18386063  0.58945417  1.0
  P  P7485  1  0.79954451  0.32671777  0.58945417  1.0
  P  P7486  1  0.79954451  0.46957491  0.58945417  1.0
  P  P7487  1  0.79954451  0.61243205  0.58945417  1.0
  P  P7488  1  0.79954451  0.75528920  0.58945417  1.0
  P  P7489  1  0.79954451  0.89814634  0.58945417  1.0
  P  P7490  1  0.91065562  0.04100348  0.58945417  1.0
  P  P7491  1  0.91065562  0.18386063  0.58945417  1.0
  P  P7492  1  0.91065562  0.32671777  0.58945417  1.0
  P  P7493  1  0.91065562  0.46957491  0.58945417  1.0
  P  P7494  1  0.91065562  0.61243205  0.58945417  1.0
  P  P7495  1  0.91065562  0.75528920  0.58945417  1.0
  P  P7496  1  0.91065562  0.89814634  0.58945417  1.0
  P  P7497  1  0.04293075  0.05460893  0.63707321  1.0
  P  P7498  1  0.04293075  0.19746607  0.63707321  1.0
  P  P7499  1  0.04293075  0.34032321  0.63707321  1.0
  P  P7500  1  0.04293075  0.48318035  0.63707321  1.0
  P  P7501  1  0.04293075  0.62603750  0.63707321  1.0
  P  P7502  1  0.04293075  0.76889464  0.63707321  1.0
  P  P7503  1  0.04293075  0.91175178  0.63707321  1.0
  P  P7504  1  0.15404186  0.05460893  0.63707321  1.0
  P  P7505  1  0.15404186  0.19746607  0.63707321  1.0
  P  P7506  1  0.15404186  0.34032321  0.63707321  1.0
  P  P7507  1  0.15404186  0.48318035  0.63707321  1.0
  P  P7508  1  0.15404186  0.62603750  0.63707321  1.0
  P  P7509  1  0.15404186  0.76889464  0.63707321  1.0
  P  P7510  1  0.15404186  0.91175178  0.63707321  1.0
  P  P7511  1  0.26515297  0.05460893  0.63707321  1.0
  P  P7512  1  0.26515297  0.19746607  0.63707321  1.0
  P  P7513  1  0.26515297  0.34032321  0.63707321  1.0
  P  P7514  1  0.26515297  0.48318035  0.63707321  1.0
  P  P7515  1  0.26515297  0.62603750  0.63707321  1.0
  P  P7516  1  0.26515297  0.76889464  0.63707321  1.0
  P  P7517  1  0.26515297  0.91175178  0.63707321  1.0
  P  P7518  1  0.37626408  0.05460893  0.63707321  1.0
  P  P7519  1  0.37626408  0.19746607  0.63707321  1.0
  P  P7520  1  0.37626408  0.34032321  0.63707321  1.0
  P  P7521  1  0.37626408  0.48318035  0.63707321  1.0
  P  P7522  1  0.37626408  0.62603750  0.63707321  1.0
  P  P7523  1  0.37626408  0.76889464  0.63707321  1.0
  P  P7524  1  0.37626408  0.91175178  0.63707321  1.0
  P  P7525  1  0.48737519  0.05460893  0.63707321  1.0
  P  P7526  1  0.48737519  0.19746607  0.63707321  1.0
  P  P7527  1  0.48737519  0.34032321  0.63707321  1.0
  P  P7528  1  0.48737519  0.48318035  0.63707321  1.0
  P  P7529  1  0.48737519  0.62603750  0.63707321  1.0
  P  P7530  1  0.48737519  0.76889464  0.63707321  1.0
  P  P7531  1  0.48737519  0.91175178  0.63707321  1.0
  P  P7532  1  0.59848630  0.05460893  0.63707321  1.0
  P  P7533  1  0.59848630  0.19746607  0.63707321  1.0
  P  P7534  1  0.59848630  0.34032321  0.63707321  1.0
  P  P7535  1  0.59848630  0.48318035  0.63707321  1.0
  P  P7536  1  0.59848630  0.62603750  0.63707321  1.0
  P  P7537  1  0.59848630  0.76889464  0.63707321  1.0
  P  P7538  1  0.59848630  0.91175178  0.63707321  1.0
  P  P7539  1  0.70959742  0.05460893  0.63707321  1.0
  P  P7540  1  0.70959742  0.19746607  0.63707321  1.0
  P  P7541  1  0.70959742  0.34032321  0.63707321  1.0
  P  P7542  1  0.70959742  0.48318035  0.63707321  1.0
  P  P7543  1  0.70959742  0.62603750  0.63707321  1.0
  P  P7544  1  0.70959742  0.76889464  0.63707321  1.0
  P  P7545  1  0.70959742  0.91175178  0.63707321  1.0
  P  P7546  1  0.82070853  0.05460893  0.63707321  1.0
  P  P7547  1  0.82070853  0.19746607  0.63707321  1.0
  P  P7548  1  0.82070853  0.34032321  0.63707321  1.0
  P  P7549  1  0.82070853  0.48318035  0.63707321  1.0
  P  P7550  1  0.82070853  0.62603750  0.63707321  1.0
  P  P7551  1  0.82070853  0.76889464  0.63707321  1.0
  P  P7552  1  0.82070853  0.91175178  0.63707321  1.0
  P  P7553  1  0.93181964  0.05460893  0.63707321  1.0
  P  P7554  1  0.93181964  0.19746607  0.63707321  1.0
  P  P7555  1  0.93181964  0.34032321  0.63707321  1.0
  P  P7556  1  0.93181964  0.48318035  0.63707321  1.0
  P  P7557  1  0.93181964  0.62603750  0.63707321  1.0
  P  P7558  1  0.93181964  0.76889464  0.63707321  1.0
  P  P7559  1  0.93181964  0.91175178  0.63707321  1.0
  P  P7560  1  0.06970357  0.01660914  0.70540942  1.0
  P  P7561  1  0.06970357  0.15946629  0.70540942  1.0
  P  P7562  1  0.06970357  0.30232343  0.70540942  1.0
  P  P7563  1  0.06970357  0.44518057  0.70540942  1.0
  P  P7564  1  0.06970357  0.58803772  0.70540942  1.0
  P  P7565  1  0.06970357  0.73089486  0.70540942  1.0
  P  P7566  1  0.06970357  0.87375200  0.70540942  1.0
  P  P7567  1  0.18081468  0.01660914  0.70540942  1.0
  P  P7568  1  0.18081468  0.15946629  0.70540942  1.0
  P  P7569  1  0.18081468  0.30232343  0.70540942  1.0
  P  P7570  1  0.18081468  0.44518057  0.70540942  1.0
  P  P7571  1  0.18081468  0.58803772  0.70540942  1.0
  P  P7572  1  0.18081468  0.73089486  0.70540942  1.0
  P  P7573  1  0.18081468  0.87375200  0.70540942  1.0
  P  P7574  1  0.29192579  0.01660914  0.70540942  1.0
  P  P7575  1  0.29192579  0.15946629  0.70540942  1.0
  P  P7576  1  0.29192579  0.30232343  0.70540942  1.0
  P  P7577  1  0.29192579  0.44518057  0.70540942  1.0
  P  P7578  1  0.29192579  0.58803772  0.70540942  1.0
  P  P7579  1  0.29192579  0.73089486  0.70540942  1.0
  P  P7580  1  0.29192579  0.87375200  0.70540942  1.0
  P  P7581  1  0.40303690  0.01660914  0.70540942  1.0
  P  P7582  1  0.40303690  0.15946629  0.70540942  1.0
  P  P7583  1  0.40303690  0.30232343  0.70540942  1.0
  P  P7584  1  0.40303690  0.44518057  0.70540942  1.0
  P  P7585  1  0.40303690  0.58803772  0.70540942  1.0
  P  P7586  1  0.40303690  0.73089486  0.70540942  1.0
  P  P7587  1  0.40303690  0.87375200  0.70540942  1.0
  P  P7588  1  0.51414801  0.01660914  0.70540942  1.0
  P  P7589  1  0.51414801  0.15946629  0.70540942  1.0
  P  P7590  1  0.51414801  0.30232343  0.70540942  1.0
  P  P7591  1  0.51414801  0.44518057  0.70540942  1.0
  P  P7592  1  0.51414801  0.58803772  0.70540942  1.0
  P  P7593  1  0.51414801  0.73089486  0.70540942  1.0
  P  P7594  1  0.51414801  0.87375200  0.70540942  1.0
  P  P7595  1  0.62525912  0.01660914  0.70540942  1.0
  P  P7596  1  0.62525912  0.15946629  0.70540942  1.0
  P  P7597  1  0.62525912  0.30232343  0.70540942  1.0
  P  P7598  1  0.62525912  0.44518057  0.70540942  1.0
  P  P7599  1  0.62525912  0.58803772  0.70540942  1.0
  P  P7600  1  0.62525912  0.73089486  0.70540942  1.0
  P  P7601  1  0.62525912  0.87375200  0.70540942  1.0
  P  P7602  1  0.73637024  0.01660914  0.70540942  1.0
  P  P7603  1  0.73637024  0.15946629  0.70540942  1.0
  P  P7604  1  0.73637024  0.30232343  0.70540942  1.0
  P  P7605  1  0.73637024  0.44518057  0.70540942  1.0
  P  P7606  1  0.73637024  0.58803772  0.70540942  1.0
  P  P7607  1  0.73637024  0.73089486  0.70540942  1.0
  P  P7608  1  0.73637024  0.87375200  0.70540942  1.0
  P  P7609  1  0.84748135  0.01660914  0.70540942  1.0
  P  P7610  1  0.84748135  0.15946629  0.70540942  1.0
  P  P7611  1  0.84748135  0.30232343  0.70540942  1.0
  P  P7612  1  0.84748135  0.44518057  0.70540942  1.0
  P  P7613  1  0.84748135  0.58803772  0.70540942  1.0
  P  P7614  1  0.84748135  0.73089486  0.70540942  1.0
  P  P7615  1  0.84748135  0.87375200  0.70540942  1.0
  P  P7616  1  0.95859246  0.01660914  0.70540942  1.0
  P  P7617  1  0.95859246  0.15946629  0.70540942  1.0
  P  P7618  1  0.95859246  0.30232343  0.70540942  1.0
  P  P7619  1  0.95859246  0.44518057  0.70540942  1.0
  P  P7620  1  0.95859246  0.58803772  0.70540942  1.0
  P  P7621  1  0.95859246  0.73089486  0.70540942  1.0
  P  P7622  1  0.95859246  0.87375200  0.70540942  1.0
  P  P7623  1  0.09086759  0.03021459  0.75302847  1.0
  P  P7624  1  0.09086759  0.17307173  0.75302847  1.0
  P  P7625  1  0.09086759  0.31592887  0.75302847  1.0
  P  P7626  1  0.09086759  0.45878601  0.75302847  1.0
  P  P7627  1  0.09086759  0.60164316  0.75302847  1.0
  P  P7628  1  0.09086759  0.74450030  0.75302847  1.0
  P  P7629  1  0.09086759  0.88735744  0.75302847  1.0
  P  P7630  1  0.20197870  0.03021459  0.75302847  1.0
  P  P7631  1  0.20197870  0.17307173  0.75302847  1.0
  P  P7632  1  0.20197870  0.31592887  0.75302847  1.0
  P  P7633  1  0.20197870  0.45878601  0.75302847  1.0
  P  P7634  1  0.20197870  0.60164316  0.75302847  1.0
  P  P7635  1  0.20197870  0.74450030  0.75302847  1.0
  P  P7636  1  0.20197870  0.88735744  0.75302847  1.0
  P  P7637  1  0.31308981  0.03021459  0.75302847  1.0
  P  P7638  1  0.31308981  0.17307173  0.75302847  1.0
  P  P7639  1  0.31308981  0.31592887  0.75302847  1.0
  P  P7640  1  0.31308981  0.45878601  0.75302847  1.0
  P  P7641  1  0.31308981  0.60164316  0.75302847  1.0
  P  P7642  1  0.31308981  0.74450030  0.75302847  1.0
  P  P7643  1  0.31308981  0.88735744  0.75302847  1.0
  P  P7644  1  0.42420092  0.03021459  0.75302847  1.0
  P  P7645  1  0.42420092  0.17307173  0.75302847  1.0
  P  P7646  1  0.42420092  0.31592887  0.75302847  1.0
  P  P7647  1  0.42420092  0.45878601  0.75302847  1.0
  P  P7648  1  0.42420092  0.60164316  0.75302847  1.0
  P  P7649  1  0.42420092  0.74450030  0.75302847  1.0
  P  P7650  1  0.42420092  0.88735744  0.75302847  1.0
  P  P7651  1  0.53531203  0.03021459  0.75302847  1.0
  P  P7652  1  0.53531203  0.17307173  0.75302847  1.0
  P  P7653  1  0.53531203  0.31592887  0.75302847  1.0
  P  P7654  1  0.53531203  0.45878601  0.75302847  1.0
  P  P7655  1  0.53531203  0.60164316  0.75302847  1.0
  P  P7656  1  0.53531203  0.74450030  0.75302847  1.0
  P  P7657  1  0.53531203  0.88735744  0.75302847  1.0
  P  P7658  1  0.64642315  0.03021459  0.75302847  1.0
  P  P7659  1  0.64642315  0.17307173  0.75302847  1.0
  P  P7660  1  0.64642315  0.31592887  0.75302847  1.0
  P  P7661  1  0.64642315  0.45878601  0.75302847  1.0
  P  P7662  1  0.64642315  0.60164316  0.75302847  1.0
  P  P7663  1  0.64642315  0.74450030  0.75302847  1.0
  P  P7664  1  0.64642315  0.88735744  0.75302847  1.0
  P  P7665  1  0.75753426  0.03021459  0.75302847  1.0
  P  P7666  1  0.75753426  0.17307173  0.75302847  1.0
  P  P7667  1  0.75753426  0.31592887  0.75302847  1.0
  P  P7668  1  0.75753426  0.45878601  0.75302847  1.0
  P  P7669  1  0.75753426  0.60164316  0.75302847  1.0
  P  P7670  1  0.75753426  0.74450030  0.75302847  1.0
  P  P7671  1  0.75753426  0.88735744  0.75302847  1.0
  P  P7672  1  0.86864537  0.03021459  0.75302847  1.0
  P  P7673  1  0.86864537  0.17307173  0.75302847  1.0
  P  P7674  1  0.86864537  0.31592887  0.75302847  1.0
  P  P7675  1  0.86864537  0.45878601  0.75302847  1.0
  P  P7676  1  0.86864537  0.60164316  0.75302847  1.0
  P  P7677  1  0.86864537  0.74450030  0.75302847  1.0
  P  P7678  1  0.86864537  0.88735744  0.75302847  1.0
  P  P7679  1  0.97975648  0.03021459  0.75302847  1.0
  P  P7680  1  0.97975648  0.17307173  0.75302847  1.0
  P  P7681  1  0.97975648  0.31592887  0.75302847  1.0
  P  P7682  1  0.97975648  0.45878601  0.75302847  1.0
  P  P7683  1  0.97975648  0.60164316  0.75302847  1.0
  P  P7684  1  0.97975648  0.74450030  0.75302847  1.0
  P  P7685  1  0.97975648  0.88735744  0.75302847  1.0
  P  P7686  1  0.04853955  0.00300370  0.65779037  1.0
  P  P7687  1  0.04853955  0.14586084  0.65779037  1.0
  P  P7688  1  0.04853955  0.28871799  0.65779037  1.0
  P  P7689  1  0.04853955  0.43157513  0.65779037  1.0
  P  P7690  1  0.04853955  0.57443227  0.65779037  1.0
  P  P7691  1  0.04853955  0.71728942  0.65779037  1.0
  P  P7692  1  0.04853955  0.86014656  0.65779037  1.0
  P  P7693  1  0.15965066  0.00300370  0.65779037  1.0
  P  P7694  1  0.15965066  0.14586084  0.65779037  1.0
  P  P7695  1  0.15965066  0.28871799  0.65779037  1.0
  P  P7696  1  0.15965066  0.43157513  0.65779037  1.0
  P  P7697  1  0.15965066  0.57443227  0.65779037  1.0
  P  P7698  1  0.15965066  0.71728942  0.65779037  1.0
  P  P7699  1  0.15965066  0.86014656  0.65779037  1.0
  P  P7700  1  0.27076177  0.00300370  0.65779037  1.0
  P  P7701  1  0.27076177  0.14586084  0.65779037  1.0
  P  P7702  1  0.27076177  0.28871799  0.65779037  1.0
  P  P7703  1  0.27076177  0.43157513  0.65779037  1.0
  P  P7704  1  0.27076177  0.57443227  0.65779037  1.0
  P  P7705  1  0.27076177  0.71728942  0.65779037  1.0
  P  P7706  1  0.27076177  0.86014656  0.65779037  1.0
  P  P7707  1  0.38187288  0.00300370  0.65779037  1.0
  P  P7708  1  0.38187288  0.14586084  0.65779037  1.0
  P  P7709  1  0.38187288  0.28871799  0.65779037  1.0
  P  P7710  1  0.38187288  0.43157513  0.65779037  1.0
  P  P7711  1  0.38187288  0.57443227  0.65779037  1.0
  P  P7712  1  0.38187288  0.71728942  0.65779037  1.0
  P  P7713  1  0.38187288  0.86014656  0.65779037  1.0
  P  P7714  1  0.49298399  0.00300370  0.65779037  1.0
  P  P7715  1  0.49298399  0.14586084  0.65779037  1.0
  P  P7716  1  0.49298399  0.28871799  0.65779037  1.0
  P  P7717  1  0.49298399  0.43157513  0.65779037  1.0
  P  P7718  1  0.49298399  0.57443227  0.65779037  1.0
  P  P7719  1  0.49298399  0.71728942  0.65779037  1.0
  P  P7720  1  0.49298399  0.86014656  0.65779037  1.0
  P  P7721  1  0.60409510  0.00300370  0.65779037  1.0
  P  P7722  1  0.60409510  0.14586084  0.65779037  1.0
  P  P7723  1  0.60409510  0.28871799  0.65779037  1.0
  P  P7724  1  0.60409510  0.43157513  0.65779037  1.0
  P  P7725  1  0.60409510  0.57443227  0.65779037  1.0
  P  P7726  1  0.60409510  0.71728942  0.65779037  1.0
  P  P7727  1  0.60409510  0.86014656  0.65779037  1.0
  P  P7728  1  0.71520621  0.00300370  0.65779037  1.0
  P  P7729  1  0.71520621  0.14586084  0.65779037  1.0
  P  P7730  1  0.71520621  0.28871799  0.65779037  1.0
  P  P7731  1  0.71520621  0.43157513  0.65779037  1.0
  P  P7732  1  0.71520621  0.57443227  0.65779037  1.0
  P  P7733  1  0.71520621  0.71728942  0.65779037  1.0
  P  P7734  1  0.71520621  0.86014656  0.65779037  1.0
  P  P7735  1  0.82631733  0.00300370  0.65779037  1.0
  P  P7736  1  0.82631733  0.14586084  0.65779037  1.0
  P  P7737  1  0.82631733  0.28871799  0.65779037  1.0
  P  P7738  1  0.82631733  0.43157513  0.65779037  1.0
  P  P7739  1  0.82631733  0.57443227  0.65779037  1.0
  P  P7740  1  0.82631733  0.71728942  0.65779037  1.0
  P  P7741  1  0.82631733  0.86014656  0.65779037  1.0
  P  P7742  1  0.93742844  0.00300370  0.65779037  1.0
  P  P7743  1  0.93742844  0.14586084  0.65779037  1.0
  P  P7744  1  0.93742844  0.28871799  0.65779037  1.0
  P  P7745  1  0.93742844  0.43157513  0.65779037  1.0
  P  P7746  1  0.93742844  0.57443227  0.65779037  1.0
  P  P7747  1  0.93742844  0.71728942  0.65779037  1.0
  P  P7748  1  0.93742844  0.86014656  0.65779037  1.0
  P  P7749  1  0.04910937  0.11964643  0.70301520  1.0
  P  P7750  1  0.04910937  0.26250357  0.70301520  1.0
  P  P7751  1  0.04910937  0.40536071  0.70301520  1.0
  P  P7752  1  0.04910937  0.54821786  0.70301520  1.0
  P  P7753  1  0.04910937  0.69107500  0.70301520  1.0
  P  P7754  1  0.04910937  0.83393214  0.70301520  1.0
  P  P7755  1  0.04910937  0.97678929  0.70301520  1.0
  P  P7756  1  0.16022049  0.11964643  0.70301520  1.0
  P  P7757  1  0.16022049  0.26250357  0.70301520  1.0
  P  P7758  1  0.16022049  0.40536071  0.70301520  1.0
  P  P7759  1  0.16022049  0.54821786  0.70301520  1.0
  P  P7760  1  0.16022049  0.69107500  0.70301520  1.0
  P  P7761  1  0.16022049  0.83393214  0.70301520  1.0
  P  P7762  1  0.16022049  0.97678929  0.70301520  1.0
  P  P7763  1  0.27133160  0.11964643  0.70301520  1.0
  P  P7764  1  0.27133160  0.26250357  0.70301520  1.0
  P  P7765  1  0.27133160  0.40536071  0.70301520  1.0
  P  P7766  1  0.27133160  0.54821786  0.70301520  1.0
  P  P7767  1  0.27133160  0.69107500  0.70301520  1.0
  P  P7768  1  0.27133160  0.83393214  0.70301520  1.0
  P  P7769  1  0.27133160  0.97678929  0.70301520  1.0
  P  P7770  1  0.38244271  0.11964643  0.70301520  1.0
  P  P7771  1  0.38244271  0.26250357  0.70301520  1.0
  P  P7772  1  0.38244271  0.40536071  0.70301520  1.0
  P  P7773  1  0.38244271  0.54821786  0.70301520  1.0
  P  P7774  1  0.38244271  0.69107500  0.70301520  1.0
  P  P7775  1  0.38244271  0.83393214  0.70301520  1.0
  P  P7776  1  0.38244271  0.97678929  0.70301520  1.0
  P  P7777  1  0.49355382  0.11964643  0.70301520  1.0
  P  P7778  1  0.49355382  0.26250357  0.70301520  1.0
  P  P7779  1  0.49355382  0.40536071  0.70301520  1.0
  P  P7780  1  0.49355382  0.54821786  0.70301520  1.0
  P  P7781  1  0.49355382  0.69107500  0.70301520  1.0
  P  P7782  1  0.49355382  0.83393214  0.70301520  1.0
  P  P7783  1  0.49355382  0.97678929  0.70301520  1.0
  P  P7784  1  0.60466493  0.11964643  0.70301520  1.0
  P  P7785  1  0.60466493  0.26250357  0.70301520  1.0
  P  P7786  1  0.60466493  0.40536071  0.70301520  1.0
  P  P7787  1  0.60466493  0.54821786  0.70301520  1.0
  P  P7788  1  0.60466493  0.69107500  0.70301520  1.0
  P  P7789  1  0.60466493  0.83393214  0.70301520  1.0
  P  P7790  1  0.60466493  0.97678929  0.70301520  1.0
  P  P7791  1  0.71577604  0.11964643  0.70301520  1.0
  P  P7792  1  0.71577604  0.26250357  0.70301520  1.0
  P  P7793  1  0.71577604  0.40536071  0.70301520  1.0
  P  P7794  1  0.71577604  0.54821786  0.70301520  1.0
  P  P7795  1  0.71577604  0.69107500  0.70301520  1.0
  P  P7796  1  0.71577604  0.83393214  0.70301520  1.0
  P  P7797  1  0.71577604  0.97678929  0.70301520  1.0
  P  P7798  1  0.82688715  0.11964643  0.70301520  1.0
  P  P7799  1  0.82688715  0.26250357  0.70301520  1.0
  P  P7800  1  0.82688715  0.40536071  0.70301520  1.0
  P  P7801  1  0.82688715  0.54821786  0.70301520  1.0
  P  P7802  1  0.82688715  0.69107500  0.70301520  1.0
  P  P7803  1  0.82688715  0.83393214  0.70301520  1.0
  P  P7804  1  0.82688715  0.97678929  0.70301520  1.0
  P  P7805  1  0.93799826  0.11964643  0.70301520  1.0
  P  P7806  1  0.93799826  0.26250357  0.70301520  1.0
  P  P7807  1  0.93799826  0.40536071  0.70301520  1.0
  P  P7808  1  0.93799826  0.54821786  0.70301520  1.0
  P  P7809  1  0.93799826  0.69107500  0.70301520  1.0
  P  P7810  1  0.93799826  0.83393214  0.70301520  1.0
  P  P7811  1  0.93799826  0.97678929  0.70301520  1.0
  P  P7812  1  0.07027340  0.13325187  0.75063425  1.0
  P  P7813  1  0.07027340  0.27610901  0.75063425  1.0
  P  P7814  1  0.07027340  0.41896616  0.75063425  1.0
  P  P7815  1  0.07027340  0.56182330  0.75063425  1.0
  P  P7816  1  0.07027340  0.70468044  0.75063425  1.0
  P  P7817  1  0.07027340  0.84753758  0.75063425  1.0
  P  P7818  1  0.07027340  0.99039473  0.75063425  1.0
  P  P7819  1  0.18138451  0.13325187  0.75063425  1.0
  P  P7820  1  0.18138451  0.27610901  0.75063425  1.0
  P  P7821  1  0.18138451  0.41896616  0.75063425  1.0
  P  P7822  1  0.18138451  0.56182330  0.75063425  1.0
  P  P7823  1  0.18138451  0.70468044  0.75063425  1.0
  P  P7824  1  0.18138451  0.84753758  0.75063425  1.0
  P  P7825  1  0.18138451  0.99039473  0.75063425  1.0
  P  P7826  1  0.29249562  0.13325187  0.75063425  1.0
  P  P7827  1  0.29249562  0.27610901  0.75063425  1.0
  P  P7828  1  0.29249562  0.41896616  0.75063425  1.0
  P  P7829  1  0.29249562  0.56182330  0.75063425  1.0
  P  P7830  1  0.29249562  0.70468044  0.75063425  1.0
  P  P7831  1  0.29249562  0.84753758  0.75063425  1.0
  P  P7832  1  0.29249562  0.99039473  0.75063425  1.0
  P  P7833  1  0.40360673  0.13325187  0.75063425  1.0
  P  P7834  1  0.40360673  0.27610901  0.75063425  1.0
  P  P7835  1  0.40360673  0.41896616  0.75063425  1.0
  P  P7836  1  0.40360673  0.56182330  0.75063425  1.0
  P  P7837  1  0.40360673  0.70468044  0.75063425  1.0
  P  P7838  1  0.40360673  0.84753758  0.75063425  1.0
  P  P7839  1  0.40360673  0.99039473  0.75063425  1.0
  P  P7840  1  0.51471784  0.13325187  0.75063425  1.0
  P  P7841  1  0.51471784  0.27610901  0.75063425  1.0
  P  P7842  1  0.51471784  0.41896616  0.75063425  1.0
  P  P7843  1  0.51471784  0.56182330  0.75063425  1.0
  P  P7844  1  0.51471784  0.70468044  0.75063425  1.0
  P  P7845  1  0.51471784  0.84753758  0.75063425  1.0
  P  P7846  1  0.51471784  0.99039473  0.75063425  1.0
  P  P7847  1  0.62582895  0.13325187  0.75063425  1.0
  P  P7848  1  0.62582895  0.27610901  0.75063425  1.0
  P  P7849  1  0.62582895  0.41896616  0.75063425  1.0
  P  P7850  1  0.62582895  0.56182330  0.75063425  1.0
  P  P7851  1  0.62582895  0.70468044  0.75063425  1.0
  P  P7852  1  0.62582895  0.84753758  0.75063425  1.0
  P  P7853  1  0.62582895  0.99039473  0.75063425  1.0
  P  P7854  1  0.73694006  0.13325187  0.75063425  1.0
  P  P7855  1  0.73694006  0.27610901  0.75063425  1.0
  P  P7856  1  0.73694006  0.41896616  0.75063425  1.0
  P  P7857  1  0.73694006  0.56182330  0.75063425  1.0
  P  P7858  1  0.73694006  0.70468044  0.75063425  1.0
  P  P7859  1  0.73694006  0.84753758  0.75063425  1.0
  P  P7860  1  0.73694006  0.99039473  0.75063425  1.0
  P  P7861  1  0.84805117  0.13325187  0.75063425  1.0
  P  P7862  1  0.84805117  0.27610901  0.75063425  1.0
  P  P7863  1  0.84805117  0.41896616  0.75063425  1.0
  P  P7864  1  0.84805117  0.56182330  0.75063425  1.0
  P  P7865  1  0.84805117  0.70468044  0.75063425  1.0
  P  P7866  1  0.84805117  0.84753758  0.75063425  1.0
  P  P7867  1  0.84805117  0.99039473  0.75063425  1.0
  P  P7868  1  0.95916229  0.13325187  0.75063425  1.0
  P  P7869  1  0.95916229  0.27610901  0.75063425  1.0
  P  P7870  1  0.95916229  0.41896616  0.75063425  1.0
  P  P7871  1  0.95916229  0.56182330  0.75063425  1.0
  P  P7872  1  0.95916229  0.70468044  0.75063425  1.0
  P  P7873  1  0.95916229  0.84753758  0.75063425  1.0
  P  P7874  1  0.95916229  0.99039473  0.75063425  1.0
  P  P7875  1  0.02794535  0.10604099  0.65539616  1.0
  P  P7876  1  0.02794535  0.24889813  0.65539616  1.0
  P  P7877  1  0.02794535  0.39175527  0.65539616  1.0
  P  P7878  1  0.02794535  0.53461241  0.65539616  1.0
  P  P7879  1  0.02794535  0.67746956  0.65539616  1.0
  P  P7880  1  0.02794535  0.82032670  0.65539616  1.0
  P  P7881  1  0.02794535  0.96318384  0.65539616  1.0
  P  P7882  1  0.13905646  0.10604099  0.65539616  1.0
  P  P7883  1  0.13905646  0.24889813  0.65539616  1.0
  P  P7884  1  0.13905646  0.39175527  0.65539616  1.0
  P  P7885  1  0.13905646  0.53461241  0.65539616  1.0
  P  P7886  1  0.13905646  0.67746956  0.65539616  1.0
  P  P7887  1  0.13905646  0.82032670  0.65539616  1.0
  P  P7888  1  0.13905646  0.96318384  0.65539616  1.0
  P  P7889  1  0.25016758  0.10604099  0.65539616  1.0
  P  P7890  1  0.25016758  0.24889813  0.65539616  1.0
  P  P7891  1  0.25016758  0.39175527  0.65539616  1.0
  P  P7892  1  0.25016758  0.53461241  0.65539616  1.0
  P  P7893  1  0.25016758  0.67746956  0.65539616  1.0
  P  P7894  1  0.25016758  0.82032670  0.65539616  1.0
  P  P7895  1  0.25016758  0.96318384  0.65539616  1.0
  P  P7896  1  0.36127869  0.10604099  0.65539616  1.0
  P  P7897  1  0.36127869  0.24889813  0.65539616  1.0
  P  P7898  1  0.36127869  0.39175527  0.65539616  1.0
  P  P7899  1  0.36127869  0.53461241  0.65539616  1.0
  P  P7900  1  0.36127869  0.67746956  0.65539616  1.0
  P  P7901  1  0.36127869  0.82032670  0.65539616  1.0
  P  P7902  1  0.36127869  0.96318384  0.65539616  1.0
  P  P7903  1  0.47238980  0.10604099  0.65539616  1.0
  P  P7904  1  0.47238980  0.24889813  0.65539616  1.0
  P  P7905  1  0.47238980  0.39175527  0.65539616  1.0
  P  P7906  1  0.47238980  0.53461241  0.65539616  1.0
  P  P7907  1  0.47238980  0.67746956  0.65539616  1.0
  P  P7908  1  0.47238980  0.82032670  0.65539616  1.0
  P  P7909  1  0.47238980  0.96318384  0.65539616  1.0
  P  P7910  1  0.58350091  0.10604099  0.65539616  1.0
  P  P7911  1  0.58350091  0.24889813  0.65539616  1.0
  P  P7912  1  0.58350091  0.39175527  0.65539616  1.0
  P  P7913  1  0.58350091  0.53461241  0.65539616  1.0
  P  P7914  1  0.58350091  0.67746956  0.65539616  1.0
  P  P7915  1  0.58350091  0.82032670  0.65539616  1.0
  P  P7916  1  0.58350091  0.96318384  0.65539616  1.0
  P  P7917  1  0.69461202  0.10604099  0.65539616  1.0
  P  P7918  1  0.69461202  0.24889813  0.65539616  1.0
  P  P7919  1  0.69461202  0.39175527  0.65539616  1.0
  P  P7920  1  0.69461202  0.53461241  0.65539616  1.0
  P  P7921  1  0.69461202  0.67746956  0.65539616  1.0
  P  P7922  1  0.69461202  0.82032670  0.65539616  1.0
  P  P7923  1  0.69461202  0.96318384  0.65539616  1.0
  P  P7924  1  0.80572313  0.10604099  0.65539616  1.0
  P  P7925  1  0.80572313  0.24889813  0.65539616  1.0
  P  P7926  1  0.80572313  0.39175527  0.65539616  1.0
  P  P7927  1  0.80572313  0.53461241  0.65539616  1.0
  P  P7928  1  0.80572313  0.67746956  0.65539616  1.0
  P  P7929  1  0.80572313  0.82032670  0.65539616  1.0
  P  P7930  1  0.80572313  0.96318384  0.65539616  1.0
  P  P7931  1  0.91683424  0.10604099  0.65539616  1.0
  P  P7932  1  0.91683424  0.24889813  0.65539616  1.0
  P  P7933  1  0.91683424  0.39175527  0.65539616  1.0
  P  P7934  1  0.91683424  0.53461241  0.65539616  1.0
  P  P7935  1  0.91683424  0.67746956  0.65539616  1.0
  P  P7936  1  0.91683424  0.82032670  0.65539616  1.0
  P  P7937  1  0.91683424  0.96318384  0.65539616  1.0
  P  P7938  1  0.01994591  0.05262914  0.71845469  1.0
  P  P7939  1  0.01994591  0.19548628  0.71845469  1.0
  P  P7940  1  0.01994591  0.33834342  0.71845469  1.0
  P  P7941  1  0.01994591  0.48120057  0.71845469  1.0
  P  P7942  1  0.01994591  0.62405771  0.71845469  1.0
  P  P7943  1  0.01994591  0.76691485  0.71845469  1.0
  P  P7944  1  0.01994591  0.90977199  0.71845469  1.0
  P  P7945  1  0.13105702  0.05262914  0.71845469  1.0
  P  P7946  1  0.13105702  0.19548628  0.71845469  1.0
  P  P7947  1  0.13105702  0.33834342  0.71845469  1.0
  P  P7948  1  0.13105702  0.48120057  0.71845469  1.0
  P  P7949  1  0.13105702  0.62405771  0.71845469  1.0
  P  P7950  1  0.13105702  0.76691485  0.71845469  1.0
  P  P7951  1  0.13105702  0.90977199  0.71845469  1.0
  P  P7952  1  0.24216813  0.05262914  0.71845469  1.0
  P  P7953  1  0.24216813  0.19548628  0.71845469  1.0
  P  P7954  1  0.24216813  0.33834342  0.71845469  1.0
  P  P7955  1  0.24216813  0.48120057  0.71845469  1.0
  P  P7956  1  0.24216813  0.62405771  0.71845469  1.0
  P  P7957  1  0.24216813  0.76691485  0.71845469  1.0
  P  P7958  1  0.24216813  0.90977199  0.71845469  1.0
  P  P7959  1  0.35327924  0.05262914  0.71845469  1.0
  P  P7960  1  0.35327924  0.19548628  0.71845469  1.0
  P  P7961  1  0.35327924  0.33834342  0.71845469  1.0
  P  P7962  1  0.35327924  0.48120057  0.71845469  1.0
  P  P7963  1  0.35327924  0.62405771  0.71845469  1.0
  P  P7964  1  0.35327924  0.76691485  0.71845469  1.0
  P  P7965  1  0.35327924  0.90977199  0.71845469  1.0
  P  P7966  1  0.46439035  0.05262914  0.71845469  1.0
  P  P7967  1  0.46439035  0.19548628  0.71845469  1.0
  P  P7968  1  0.46439035  0.33834342  0.71845469  1.0
  P  P7969  1  0.46439035  0.48120057  0.71845469  1.0
  P  P7970  1  0.46439035  0.62405771  0.71845469  1.0
  P  P7971  1  0.46439035  0.76691485  0.71845469  1.0
  P  P7972  1  0.46439035  0.90977199  0.71845469  1.0
  P  P7973  1  0.57550146  0.05262914  0.71845469  1.0
  P  P7974  1  0.57550146  0.19548628  0.71845469  1.0
  P  P7975  1  0.57550146  0.33834342  0.71845469  1.0
  P  P7976  1  0.57550146  0.48120057  0.71845469  1.0
  P  P7977  1  0.57550146  0.62405771  0.71845469  1.0
  P  P7978  1  0.57550146  0.76691485  0.71845469  1.0
  P  P7979  1  0.57550146  0.90977199  0.71845469  1.0
  P  P7980  1  0.68661258  0.05262914  0.71845469  1.0
  P  P7981  1  0.68661258  0.19548628  0.71845469  1.0
  P  P7982  1  0.68661258  0.33834342  0.71845469  1.0
  P  P7983  1  0.68661258  0.48120057  0.71845469  1.0
  P  P7984  1  0.68661258  0.62405771  0.71845469  1.0
  P  P7985  1  0.68661258  0.76691485  0.71845469  1.0
  P  P7986  1  0.68661258  0.90977199  0.71845469  1.0
  P  P7987  1  0.79772369  0.05262914  0.71845469  1.0
  P  P7988  1  0.79772369  0.19548628  0.71845469  1.0
  P  P7989  1  0.79772369  0.33834342  0.71845469  1.0
  P  P7990  1  0.79772369  0.48120057  0.71845469  1.0
  P  P7991  1  0.79772369  0.62405771  0.71845469  1.0
  P  P7992  1  0.79772369  0.76691485  0.71845469  1.0
  P  P7993  1  0.79772369  0.90977199  0.71845469  1.0
  P  P7994  1  0.90883480  0.05262914  0.71845469  1.0
  P  P7995  1  0.90883480  0.19548628  0.71845469  1.0
  P  P7996  1  0.90883480  0.33834342  0.71845469  1.0
  P  P7997  1  0.90883480  0.48120057  0.71845469  1.0
  P  P7998  1  0.90883480  0.62405771  0.71845469  1.0
  P  P7999  1  0.90883480  0.76691485  0.71845469  1.0
  P  P8000  1  0.90883480  0.90977199  0.71845469  1.0
  P  P8001  1  0.10989300  0.03902369  0.67083564  1.0
  P  P8002  1  0.10989300  0.18188084  0.67083564  1.0
  P  P8003  1  0.10989300  0.32473798  0.67083564  1.0
  P  P8004  1  0.10989300  0.46759512  0.67083564  1.0
  P  P8005  1  0.10989300  0.61045227  0.67083564  1.0
  P  P8006  1  0.10989300  0.75330941  0.67083564  1.0
  P  P8007  1  0.10989300  0.89616655  0.67083564  1.0
  P  P8008  1  0.22100411  0.03902369  0.67083564  1.0
  P  P8009  1  0.22100411  0.18188084  0.67083564  1.0
  P  P8010  1  0.22100411  0.32473798  0.67083564  1.0
  P  P8011  1  0.22100411  0.46759512  0.67083564  1.0
  P  P8012  1  0.22100411  0.61045227  0.67083564  1.0
  P  P8013  1  0.22100411  0.75330941  0.67083564  1.0
  P  P8014  1  0.22100411  0.89616655  0.67083564  1.0
  P  P8015  1  0.33211522  0.03902369  0.67083564  1.0
  P  P8016  1  0.33211522  0.18188084  0.67083564  1.0
  P  P8017  1  0.33211522  0.32473798  0.67083564  1.0
  P  P8018  1  0.33211522  0.46759512  0.67083564  1.0
  P  P8019  1  0.33211522  0.61045227  0.67083564  1.0
  P  P8020  1  0.33211522  0.75330941  0.67083564  1.0
  P  P8021  1  0.33211522  0.89616655  0.67083564  1.0
  P  P8022  1  0.44322633  0.03902369  0.67083564  1.0
  P  P8023  1  0.44322633  0.18188084  0.67083564  1.0
  P  P8024  1  0.44322633  0.32473798  0.67083564  1.0
  P  P8025  1  0.44322633  0.46759512  0.67083564  1.0
  P  P8026  1  0.44322633  0.61045227  0.67083564  1.0
  P  P8027  1  0.44322633  0.75330941  0.67083564  1.0
  P  P8028  1  0.44322633  0.89616655  0.67083564  1.0
  P  P8029  1  0.55433744  0.03902369  0.67083564  1.0
  P  P8030  1  0.55433744  0.18188084  0.67083564  1.0
  P  P8031  1  0.55433744  0.32473798  0.67083564  1.0
  P  P8032  1  0.55433744  0.46759512  0.67083564  1.0
  P  P8033  1  0.55433744  0.61045227  0.67083564  1.0
  P  P8034  1  0.55433744  0.75330941  0.67083564  1.0
  P  P8035  1  0.55433744  0.89616655  0.67083564  1.0
  P  P8036  1  0.66544855  0.03902369  0.67083564  1.0
  P  P8037  1  0.66544855  0.18188084  0.67083564  1.0
  P  P8038  1  0.66544855  0.32473798  0.67083564  1.0
  P  P8039  1  0.66544855  0.46759512  0.67083564  1.0
  P  P8040  1  0.66544855  0.61045227  0.67083564  1.0
  P  P8041  1  0.66544855  0.75330941  0.67083564  1.0
  P  P8042  1  0.66544855  0.89616655  0.67083564  1.0
  P  P8043  1  0.77655967  0.03902369  0.67083564  1.0
  P  P8044  1  0.77655967  0.18188084  0.67083564  1.0
  P  P8045  1  0.77655967  0.32473798  0.67083564  1.0
  P  P8046  1  0.77655967  0.46759512  0.67083564  1.0
  P  P8047  1  0.77655967  0.61045227  0.67083564  1.0
  P  P8048  1  0.77655967  0.75330941  0.67083564  1.0
  P  P8049  1  0.77655967  0.89616655  0.67083564  1.0
  P  P8050  1  0.88767078  0.03902369  0.67083564  1.0
  P  P8051  1  0.88767078  0.18188084  0.67083564  1.0
  P  P8052  1  0.88767078  0.32473798  0.67083564  1.0
  P  P8053  1  0.88767078  0.46759512  0.67083564  1.0
  P  P8054  1  0.88767078  0.61045227  0.67083564  1.0
  P  P8055  1  0.88767078  0.75330941  0.67083564  1.0
  P  P8056  1  0.88767078  0.89616655  0.67083564  1.0
  P  P8057  1  0.99878189  0.03902369  0.67083564  1.0
  P  P8058  1  0.99878189  0.18188084  0.67083564  1.0
  P  P8059  1  0.99878189  0.32473798  0.67083564  1.0
  P  P8060  1  0.99878189  0.46759512  0.67083564  1.0
  P  P8061  1  0.99878189  0.61045227  0.67083564  1.0
  P  P8062  1  0.99878189  0.75330941  0.67083564  1.0
  P  P8063  1  0.99878189  0.89616655  0.67083564  1.0
  P  P8064  1  0.09886703  0.08362643  0.68996994  1.0
  P  P8065  1  0.09886703  0.22648358  0.68996994  1.0
  P  P8066  1  0.09886703  0.36934072  0.68996994  1.0
  P  P8067  1  0.09886703  0.51219786  0.68996994  1.0
  P  P8068  1  0.09886703  0.65505501  0.68996994  1.0
  P  P8069  1  0.09886703  0.79791215  0.68996994  1.0
  P  P8070  1  0.09886703  0.94076929  0.68996994  1.0
  P  P8071  1  0.20997815  0.08362643  0.68996994  1.0
  P  P8072  1  0.20997815  0.22648358  0.68996994  1.0
  P  P8073  1  0.20997815  0.36934072  0.68996994  1.0
  P  P8074  1  0.20997815  0.51219786  0.68996994  1.0
  P  P8075  1  0.20997815  0.65505501  0.68996994  1.0
  P  P8076  1  0.20997815  0.79791215  0.68996994  1.0
  P  P8077  1  0.20997815  0.94076929  0.68996994  1.0
  P  P8078  1  0.32108926  0.08362643  0.68996994  1.0
  P  P8079  1  0.32108926  0.22648358  0.68996994  1.0
  P  P8080  1  0.32108926  0.36934072  0.68996994  1.0
  P  P8081  1  0.32108926  0.51219786  0.68996994  1.0
  P  P8082  1  0.32108926  0.65505501  0.68996994  1.0
  P  P8083  1  0.32108926  0.79791215  0.68996994  1.0
  P  P8084  1  0.32108926  0.94076929  0.68996994  1.0
  P  P8085  1  0.43220037  0.08362643  0.68996994  1.0
  P  P8086  1  0.43220037  0.22648358  0.68996994  1.0
  P  P8087  1  0.43220037  0.36934072  0.68996994  1.0
  P  P8088  1  0.43220037  0.51219786  0.68996994  1.0
  P  P8089  1  0.43220037  0.65505501  0.68996994  1.0
  P  P8090  1  0.43220037  0.79791215  0.68996994  1.0
  P  P8091  1  0.43220037  0.94076929  0.68996994  1.0
  P  P8092  1  0.54331148  0.08362643  0.68996994  1.0
  P  P8093  1  0.54331148  0.22648358  0.68996994  1.0
  P  P8094  1  0.54331148  0.36934072  0.68996994  1.0
  P  P8095  1  0.54331148  0.51219786  0.68996994  1.0
  P  P8096  1  0.54331148  0.65505501  0.68996994  1.0
  P  P8097  1  0.54331148  0.79791215  0.68996994  1.0
  P  P8098  1  0.54331148  0.94076929  0.68996994  1.0
  P  P8099  1  0.65442259  0.08362643  0.68996994  1.0
  P  P8100  1  0.65442259  0.22648358  0.68996994  1.0
  P  P8101  1  0.65442259  0.36934072  0.68996994  1.0
  P  P8102  1  0.65442259  0.51219786  0.68996994  1.0
  P  P8103  1  0.65442259  0.65505501  0.68996994  1.0
  P  P8104  1  0.65442259  0.79791215  0.68996994  1.0
  P  P8105  1  0.65442259  0.94076929  0.68996994  1.0
  P  P8106  1  0.76553370  0.08362643  0.68996994  1.0
  P  P8107  1  0.76553370  0.22648358  0.68996994  1.0
  P  P8108  1  0.76553370  0.36934072  0.68996994  1.0
  P  P8109  1  0.76553370  0.51219786  0.68996994  1.0
  P  P8110  1  0.76553370  0.65505501  0.68996994  1.0
  P  P8111  1  0.76553370  0.79791215  0.68996994  1.0
  P  P8112  1  0.76553370  0.94076929  0.68996994  1.0
  P  P8113  1  0.87664481  0.08362643  0.68996994  1.0
  P  P8114  1  0.87664481  0.22648358  0.68996994  1.0
  P  P8115  1  0.87664481  0.36934072  0.68996994  1.0
  P  P8116  1  0.87664481  0.51219786  0.68996994  1.0
  P  P8117  1  0.87664481  0.65505501  0.68996994  1.0
  P  P8118  1  0.87664481  0.79791215  0.68996994  1.0
  P  P8119  1  0.87664481  0.94076929  0.68996994  1.0
  P  P8120  1  0.98775592  0.08362643  0.68996994  1.0
  P  P8121  1  0.98775592  0.22648358  0.68996994  1.0
  P  P8122  1  0.98775592  0.36934072  0.68996994  1.0
  P  P8123  1  0.98775592  0.51219786  0.68996994  1.0
  P  P8124  1  0.98775592  0.65505501  0.68996994  1.0
  P  P8125  1  0.98775592  0.79791215  0.68996994  1.0
  P  P8126  1  0.98775592  0.94076929  0.68996994  1.0
  P  P8127  1  0.00891994  0.09723188  0.73758899  1.0
  P  P8128  1  0.00891994  0.24008902  0.73758899  1.0
  P  P8129  1  0.00891994  0.38294616  0.73758899  1.0
  P  P8130  1  0.00891994  0.52580331  0.73758899  1.0
  P  P8131  1  0.00891994  0.66866045  0.73758899  1.0
  P  P8132  1  0.00891994  0.81151759  0.73758899  1.0
  P  P8133  1  0.00891994  0.95437473  0.73758899  1.0
  P  P8134  1  0.12003106  0.09723188  0.73758899  1.0
  P  P8135  1  0.12003106  0.24008902  0.73758899  1.0
  P  P8136  1  0.12003106  0.38294616  0.73758899  1.0
  P  P8137  1  0.12003106  0.52580331  0.73758899  1.0
  P  P8138  1  0.12003106  0.66866045  0.73758899  1.0
  P  P8139  1  0.12003106  0.81151759  0.73758899  1.0
  P  P8140  1  0.12003106  0.95437473  0.73758899  1.0
  P  P8141  1  0.23114217  0.09723188  0.73758899  1.0
  P  P8142  1  0.23114217  0.24008902  0.73758899  1.0
  P  P8143  1  0.23114217  0.38294616  0.73758899  1.0
  P  P8144  1  0.23114217  0.52580331  0.73758899  1.0
  P  P8145  1  0.23114217  0.66866045  0.73758899  1.0
  P  P8146  1  0.23114217  0.81151759  0.73758899  1.0
  P  P8147  1  0.23114217  0.95437473  0.73758899  1.0
  P  P8148  1  0.34225328  0.09723188  0.73758899  1.0
  P  P8149  1  0.34225328  0.24008902  0.73758899  1.0
  P  P8150  1  0.34225328  0.38294616  0.73758899  1.0
  P  P8151  1  0.34225328  0.52580331  0.73758899  1.0
  P  P8152  1  0.34225328  0.66866045  0.73758899  1.0
  P  P8153  1  0.34225328  0.81151759  0.73758899  1.0
  P  P8154  1  0.34225328  0.95437473  0.73758899  1.0
  P  P8155  1  0.45336439  0.09723188  0.73758899  1.0
  P  P8156  1  0.45336439  0.24008902  0.73758899  1.0
  P  P8157  1  0.45336439  0.38294616  0.73758899  1.0
  P  P8158  1  0.45336439  0.52580331  0.73758899  1.0
  P  P8159  1  0.45336439  0.66866045  0.73758899  1.0
  P  P8160  1  0.45336439  0.81151759  0.73758899  1.0
  P  P8161  1  0.45336439  0.95437473  0.73758899  1.0
  P  P8162  1  0.56447550  0.09723188  0.73758899  1.0
  P  P8163  1  0.56447550  0.24008902  0.73758899  1.0
  P  P8164  1  0.56447550  0.38294616  0.73758899  1.0
  P  P8165  1  0.56447550  0.52580331  0.73758899  1.0
  P  P8166  1  0.56447550  0.66866045  0.73758899  1.0
  P  P8167  1  0.56447550  0.81151759  0.73758899  1.0
  P  P8168  1  0.56447550  0.95437473  0.73758899  1.0
  P  P8169  1  0.67558661  0.09723188  0.73758899  1.0
  P  P8170  1  0.67558661  0.24008902  0.73758899  1.0
  P  P8171  1  0.67558661  0.38294616  0.73758899  1.0
  P  P8172  1  0.67558661  0.52580331  0.73758899  1.0
  P  P8173  1  0.67558661  0.66866045  0.73758899  1.0
  P  P8174  1  0.67558661  0.81151759  0.73758899  1.0
  P  P8175  1  0.67558661  0.95437473  0.73758899  1.0
  P  P8176  1  0.78669772  0.09723188  0.73758899  1.0
  P  P8177  1  0.78669772  0.24008902  0.73758899  1.0
  P  P8178  1  0.78669772  0.38294616  0.73758899  1.0
  P  P8179  1  0.78669772  0.52580331  0.73758899  1.0
  P  P8180  1  0.78669772  0.66866045  0.73758899  1.0
  P  P8181  1  0.78669772  0.81151759  0.73758899  1.0
  P  P8182  1  0.78669772  0.95437473  0.73758899  1.0
  P  P8183  1  0.89780883  0.09723188  0.73758899  1.0
  P  P8184  1  0.89780883  0.24008902  0.73758899  1.0
  P  P8185  1  0.89780883  0.38294616  0.73758899  1.0
  P  P8186  1  0.89780883  0.52580331  0.73758899  1.0
  P  P8187  1  0.89780883  0.66866045  0.73758899  1.0
  P  P8188  1  0.89780883  0.81151759  0.73758899  1.0
  P  P8189  1  0.89780883  0.95437473  0.73758899  1.0
  P  P8190  1  0.10859558  0.00686130  0.71995654  1.0
  P  P8191  1  0.10859558  0.14971845  0.71995654  1.0
  P  P8192  1  0.10859558  0.29257559  0.71995654  1.0
  P  P8193  1  0.10859558  0.43543273  0.71995654  1.0
  P  P8194  1  0.10859558  0.57828987  0.71995654  1.0
  P  P8195  1  0.10859558  0.72114702  0.71995654  1.0
  P  P8196  1  0.10859558  0.86400416  0.71995654  1.0
  P  P8197  1  0.21970670  0.00686130  0.71995654  1.0
  P  P8198  1  0.21970670  0.14971845  0.71995654  1.0
  P  P8199  1  0.21970670  0.29257559  0.71995654  1.0
  P  P8200  1  0.21970670  0.43543273  0.71995654  1.0
  P  P8201  1  0.21970670  0.57828987  0.71995654  1.0
  P  P8202  1  0.21970670  0.72114702  0.71995654  1.0
  P  P8203  1  0.21970670  0.86400416  0.71995654  1.0
  P  P8204  1  0.33081781  0.00686130  0.71995654  1.0
  P  P8205  1  0.33081781  0.14971845  0.71995654  1.0
  P  P8206  1  0.33081781  0.29257559  0.71995654  1.0
  P  P8207  1  0.33081781  0.43543273  0.71995654  1.0
  P  P8208  1  0.33081781  0.57828987  0.71995654  1.0
  P  P8209  1  0.33081781  0.72114702  0.71995654  1.0
  P  P8210  1  0.33081781  0.86400416  0.71995654  1.0
  P  P8211  1  0.44192892  0.00686130  0.71995654  1.0
  P  P8212  1  0.44192892  0.14971845  0.71995654  1.0
  P  P8213  1  0.44192892  0.29257559  0.71995654  1.0
  P  P8214  1  0.44192892  0.43543273  0.71995654  1.0
  P  P8215  1  0.44192892  0.57828987  0.71995654  1.0
  P  P8216  1  0.44192892  0.72114702  0.71995654  1.0
  P  P8217  1  0.44192892  0.86400416  0.71995654  1.0
  P  P8218  1  0.55304003  0.00686130  0.71995654  1.0
  P  P8219  1  0.55304003  0.14971845  0.71995654  1.0
  P  P8220  1  0.55304003  0.29257559  0.71995654  1.0
  P  P8221  1  0.55304003  0.43543273  0.71995654  1.0
  P  P8222  1  0.55304003  0.57828987  0.71995654  1.0
  P  P8223  1  0.55304003  0.72114702  0.71995654  1.0
  P  P8224  1  0.55304003  0.86400416  0.71995654  1.0
  P  P8225  1  0.66415114  0.00686130  0.71995654  1.0
  P  P8226  1  0.66415114  0.14971845  0.71995654  1.0
  P  P8227  1  0.66415114  0.29257559  0.71995654  1.0
  P  P8228  1  0.66415114  0.43543273  0.71995654  1.0
  P  P8229  1  0.66415114  0.57828987  0.71995654  1.0
  P  P8230  1  0.66415114  0.72114702  0.71995654  1.0
  P  P8231  1  0.66415114  0.86400416  0.71995654  1.0
  P  P8232  1  0.77526225  0.00686130  0.71995654  1.0
  P  P8233  1  0.77526225  0.14971845  0.71995654  1.0
  P  P8234  1  0.77526225  0.29257559  0.71995654  1.0
  P  P8235  1  0.77526225  0.43543273  0.71995654  1.0
  P  P8236  1  0.77526225  0.57828987  0.71995654  1.0
  P  P8237  1  0.77526225  0.72114702  0.71995654  1.0
  P  P8238  1  0.77526225  0.86400416  0.71995654  1.0
  P  P8239  1  0.88637336  0.00686130  0.71995654  1.0
  P  P8240  1  0.88637336  0.14971845  0.71995654  1.0
  P  P8241  1  0.88637336  0.29257559  0.71995654  1.0
  P  P8242  1  0.88637336  0.43543273  0.71995654  1.0
  P  P8243  1  0.88637336  0.57828987  0.71995654  1.0
  P  P8244  1  0.88637336  0.72114702  0.71995654  1.0
  P  P8245  1  0.88637336  0.86400416  0.71995654  1.0
  P  P8246  1  0.99748447  0.00686130  0.71995654  1.0
  P  P8247  1  0.99748447  0.14971845  0.71995654  1.0
  P  P8248  1  0.99748447  0.29257559  0.71995654  1.0
  P  P8249  1  0.99748447  0.43543273  0.71995654  1.0
  P  P8250  1  0.99748447  0.57828987  0.71995654  1.0
  P  P8251  1  0.99748447  0.72114702  0.71995654  1.0
  P  P8252  1  0.99748447  0.86400416  0.71995654  1.0
  P  P8253  1  0.08743156  0.13611300  0.67233749  1.0
  P  P8254  1  0.08743156  0.27897015  0.67233749  1.0
  P  P8255  1  0.08743156  0.42182729  0.67233749  1.0
  P  P8256  1  0.08743156  0.56468443  0.67233749  1.0
  P  P8257  1  0.08743156  0.70754158  0.67233749  1.0
  P  P8258  1  0.08743156  0.85039872  0.67233749  1.0
  P  P8259  1  0.08743156  0.99325586  0.67233749  1.0
  P  P8260  1  0.19854267  0.13611300  0.67233749  1.0
  P  P8261  1  0.19854267  0.27897015  0.67233749  1.0
  P  P8262  1  0.19854267  0.42182729  0.67233749  1.0
  P  P8263  1  0.19854267  0.56468443  0.67233749  1.0
  P  P8264  1  0.19854267  0.70754158  0.67233749  1.0
  P  P8265  1  0.19854267  0.85039872  0.67233749  1.0
  P  P8266  1  0.19854267  0.99325586  0.67233749  1.0
  P  P8267  1  0.30965379  0.13611300  0.67233749  1.0
  P  P8268  1  0.30965379  0.27897015  0.67233749  1.0
  P  P8269  1  0.30965379  0.42182729  0.67233749  1.0
  P  P8270  1  0.30965379  0.56468443  0.67233749  1.0
  P  P8271  1  0.30965379  0.70754158  0.67233749  1.0
  P  P8272  1  0.30965379  0.85039872  0.67233749  1.0
  P  P8273  1  0.30965379  0.99325586  0.67233749  1.0
  P  P8274  1  0.42076490  0.13611300  0.67233749  1.0
  P  P8275  1  0.42076490  0.27897015  0.67233749  1.0
  P  P8276  1  0.42076490  0.42182729  0.67233749  1.0
  P  P8277  1  0.42076490  0.56468443  0.67233749  1.0
  P  P8278  1  0.42076490  0.70754158  0.67233749  1.0
  P  P8279  1  0.42076490  0.85039872  0.67233749  1.0
  P  P8280  1  0.42076490  0.99325586  0.67233749  1.0
  P  P8281  1  0.53187601  0.13611300  0.67233749  1.0
  P  P8282  1  0.53187601  0.27897015  0.67233749  1.0
  P  P8283  1  0.53187601  0.42182729  0.67233749  1.0
  P  P8284  1  0.53187601  0.56468443  0.67233749  1.0
  P  P8285  1  0.53187601  0.70754158  0.67233749  1.0
  P  P8286  1  0.53187601  0.85039872  0.67233749  1.0
  P  P8287  1  0.53187601  0.99325586  0.67233749  1.0
  P  P8288  1  0.64298712  0.13611300  0.67233749  1.0
  P  P8289  1  0.64298712  0.27897015  0.67233749  1.0
  P  P8290  1  0.64298712  0.42182729  0.67233749  1.0
  P  P8291  1  0.64298712  0.56468443  0.67233749  1.0
  P  P8292  1  0.64298712  0.70754158  0.67233749  1.0
  P  P8293  1  0.64298712  0.85039872  0.67233749  1.0
  P  P8294  1  0.64298712  0.99325586  0.67233749  1.0
  P  P8295  1  0.75409823  0.13611300  0.67233749  1.0
  P  P8296  1  0.75409823  0.27897015  0.67233749  1.0
  P  P8297  1  0.75409823  0.42182729  0.67233749  1.0
  P  P8298  1  0.75409823  0.56468443  0.67233749  1.0
  P  P8299  1  0.75409823  0.70754158  0.67233749  1.0
  P  P8300  1  0.75409823  0.85039872  0.67233749  1.0
  P  P8301  1  0.75409823  0.99325586  0.67233749  1.0
  P  P8302  1  0.86520934  0.13611300  0.67233749  1.0
  P  P8303  1  0.86520934  0.27897015  0.67233749  1.0
  P  P8304  1  0.86520934  0.42182729  0.67233749  1.0
  P  P8305  1  0.86520934  0.56468443  0.67233749  1.0
  P  P8306  1  0.86520934  0.70754158  0.67233749  1.0
  P  P8307  1  0.86520934  0.85039872  0.67233749  1.0
  P  P8308  1  0.86520934  0.99325586  0.67233749  1.0
  P  P8309  1  0.97632045  0.13611300  0.67233749  1.0
  P  P8310  1  0.97632045  0.27897015  0.67233749  1.0
  P  P8311  1  0.97632045  0.42182729  0.67233749  1.0
  P  P8312  1  0.97632045  0.56468443  0.67233749  1.0
  P  P8313  1  0.97632045  0.70754158  0.67233749  1.0
  P  P8314  1  0.97632045  0.85039872  0.67233749  1.0
  P  P8315  1  0.97632045  0.99325586  0.67233749  1.0
  P  P8316  1  0.01021736  0.12939427  0.68846809  1.0
  P  P8317  1  0.01021736  0.27225141  0.68846809  1.0
  P  P8318  1  0.01021736  0.41510855  0.68846809  1.0
  P  P8319  1  0.01021736  0.55796570  0.68846809  1.0
  P  P8320  1  0.01021736  0.70082284  0.68846809  1.0
  P  P8321  1  0.01021736  0.84367998  0.68846809  1.0
  P  P8322  1  0.01021736  0.98653713  0.68846809  1.0
  P  P8323  1  0.12132847  0.12939427  0.68846809  1.0
  P  P8324  1  0.12132847  0.27225141  0.68846809  1.0
  P  P8325  1  0.12132847  0.41510855  0.68846809  1.0
  P  P8326  1  0.12132847  0.55796570  0.68846809  1.0
  P  P8327  1  0.12132847  0.70082284  0.68846809  1.0
  P  P8328  1  0.12132847  0.84367998  0.68846809  1.0
  P  P8329  1  0.12132847  0.98653713  0.68846809  1.0
  P  P8330  1  0.23243958  0.12939427  0.68846809  1.0
  P  P8331  1  0.23243958  0.27225141  0.68846809  1.0
  P  P8332  1  0.23243958  0.41510855  0.68846809  1.0
  P  P8333  1  0.23243958  0.55796570  0.68846809  1.0
  P  P8334  1  0.23243958  0.70082284  0.68846809  1.0
  P  P8335  1  0.23243958  0.84367998  0.68846809  1.0
  P  P8336  1  0.23243958  0.98653713  0.68846809  1.0
  P  P8337  1  0.34355069  0.12939427  0.68846809  1.0
  P  P8338  1  0.34355069  0.27225141  0.68846809  1.0
  P  P8339  1  0.34355069  0.41510855  0.68846809  1.0
  P  P8340  1  0.34355069  0.55796570  0.68846809  1.0
  P  P8341  1  0.34355069  0.70082284  0.68846809  1.0
  P  P8342  1  0.34355069  0.84367998  0.68846809  1.0
  P  P8343  1  0.34355069  0.98653713  0.68846809  1.0
  P  P8344  1  0.45466180  0.12939427  0.68846809  1.0
  P  P8345  1  0.45466180  0.27225141  0.68846809  1.0
  P  P8346  1  0.45466180  0.41510855  0.68846809  1.0
  P  P8347  1  0.45466180  0.55796570  0.68846809  1.0
  P  P8348  1  0.45466180  0.70082284  0.68846809  1.0
  P  P8349  1  0.45466180  0.84367998  0.68846809  1.0
  P  P8350  1  0.45466180  0.98653713  0.68846809  1.0
  P  P8351  1  0.56577292  0.12939427  0.68846809  1.0
  P  P8352  1  0.56577292  0.27225141  0.68846809  1.0
  P  P8353  1  0.56577292  0.41510855  0.68846809  1.0
  P  P8354  1  0.56577292  0.55796570  0.68846809  1.0
  P  P8355  1  0.56577292  0.70082284  0.68846809  1.0
  P  P8356  1  0.56577292  0.84367998  0.68846809  1.0
  P  P8357  1  0.56577292  0.98653713  0.68846809  1.0
  P  P8358  1  0.67688403  0.12939427  0.68846809  1.0
  P  P8359  1  0.67688403  0.27225141  0.68846809  1.0
  P  P8360  1  0.67688403  0.41510855  0.68846809  1.0
  P  P8361  1  0.67688403  0.55796570  0.68846809  1.0
  P  P8362  1  0.67688403  0.70082284  0.68846809  1.0
  P  P8363  1  0.67688403  0.84367998  0.68846809  1.0
  P  P8364  1  0.67688403  0.98653713  0.68846809  1.0
  P  P8365  1  0.78799514  0.12939427  0.68846809  1.0
  P  P8366  1  0.78799514  0.27225141  0.68846809  1.0
  P  P8367  1  0.78799514  0.41510855  0.68846809  1.0
  P  P8368  1  0.78799514  0.55796570  0.68846809  1.0
  P  P8369  1  0.78799514  0.70082284  0.68846809  1.0
  P  P8370  1  0.78799514  0.84367998  0.68846809  1.0
  P  P8371  1  0.78799514  0.98653713  0.68846809  1.0
  P  P8372  1  0.89910625  0.12939427  0.68846809  1.0
  P  P8373  1  0.89910625  0.27225141  0.68846809  1.0
  P  P8374  1  0.89910625  0.41510855  0.68846809  1.0
  P  P8375  1  0.89910625  0.55796570  0.68846809  1.0
  P  P8376  1  0.89910625  0.70082284  0.68846809  1.0
  P  P8377  1  0.89910625  0.84367998  0.68846809  1.0
  P  P8378  1  0.89910625  0.98653713  0.68846809  1.0
  P  P8379  1  0.03138138  0.00014257  0.73608714  1.0
  P  P8380  1  0.03138138  0.14299971  0.73608714  1.0
  P  P8381  1  0.03138138  0.28585685  0.73608714  1.0
  P  P8382  1  0.03138138  0.42871400  0.73608714  1.0
  P  P8383  1  0.03138138  0.57157114  0.73608714  1.0
  P  P8384  1  0.03138138  0.71442828  0.73608714  1.0
  P  P8385  1  0.03138138  0.85728543  0.73608714  1.0
  P  P8386  1  0.14249249  0.00014257  0.73608714  1.0
  P  P8387  1  0.14249249  0.14299971  0.73608714  1.0
  P  P8388  1  0.14249249  0.28585685  0.73608714  1.0
  P  P8389  1  0.14249249  0.42871400  0.73608714  1.0
  P  P8390  1  0.14249249  0.57157114  0.73608714  1.0
  P  P8391  1  0.14249249  0.71442828  0.73608714  1.0
  P  P8392  1  0.14249249  0.85728543  0.73608714  1.0
  P  P8393  1  0.25360360  0.00014257  0.73608714  1.0
  P  P8394  1  0.25360360  0.14299971  0.73608714  1.0
  P  P8395  1  0.25360360  0.28585685  0.73608714  1.0
  P  P8396  1  0.25360360  0.42871400  0.73608714  1.0
  P  P8397  1  0.25360360  0.57157114  0.73608714  1.0
  P  P8398  1  0.25360360  0.71442828  0.73608714  1.0
  P  P8399  1  0.25360360  0.85728543  0.73608714  1.0
  P  P8400  1  0.36471471  0.00014257  0.73608714  1.0
  P  P8401  1  0.36471471  0.14299971  0.73608714  1.0
  P  P8402  1  0.36471471  0.28585685  0.73608714  1.0
  P  P8403  1  0.36471471  0.42871400  0.73608714  1.0
  P  P8404  1  0.36471471  0.57157114  0.73608714  1.0
  P  P8405  1  0.36471471  0.71442828  0.73608714  1.0
  P  P8406  1  0.36471471  0.85728543  0.73608714  1.0
  P  P8407  1  0.47582583  0.00014257  0.73608714  1.0
  P  P8408  1  0.47582583  0.14299971  0.73608714  1.0
  P  P8409  1  0.47582583  0.28585685  0.73608714  1.0
  P  P8410  1  0.47582583  0.42871400  0.73608714  1.0
  P  P8411  1  0.47582583  0.57157114  0.73608714  1.0
  P  P8412  1  0.47582583  0.71442828  0.73608714  1.0
  P  P8413  1  0.47582583  0.85728543  0.73608714  1.0
  P  P8414  1  0.58693694  0.00014257  0.73608714  1.0
  P  P8415  1  0.58693694  0.14299971  0.73608714  1.0
  P  P8416  1  0.58693694  0.28585685  0.73608714  1.0
  P  P8417  1  0.58693694  0.42871400  0.73608714  1.0
  P  P8418  1  0.58693694  0.57157114  0.73608714  1.0
  P  P8419  1  0.58693694  0.71442828  0.73608714  1.0
  P  P8420  1  0.58693694  0.85728543  0.73608714  1.0
  P  P8421  1  0.69804805  0.00014257  0.73608714  1.0
  P  P8422  1  0.69804805  0.14299971  0.73608714  1.0
  P  P8423  1  0.69804805  0.28585685  0.73608714  1.0
  P  P8424  1  0.69804805  0.42871400  0.73608714  1.0
  P  P8425  1  0.69804805  0.57157114  0.73608714  1.0
  P  P8426  1  0.69804805  0.71442828  0.73608714  1.0
  P  P8427  1  0.69804805  0.85728543  0.73608714  1.0
  P  P8428  1  0.80915916  0.00014257  0.73608714  1.0
  P  P8429  1  0.80915916  0.14299971  0.73608714  1.0
  P  P8430  1  0.80915916  0.28585685  0.73608714  1.0
  P  P8431  1  0.80915916  0.42871400  0.73608714  1.0
  P  P8432  1  0.80915916  0.57157114  0.73608714  1.0
  P  P8433  1  0.80915916  0.71442828  0.73608714  1.0
  P  P8434  1  0.80915916  0.85728543  0.73608714  1.0
  P  P8435  1  0.92027027  0.00014257  0.73608714  1.0
  P  P8436  1  0.92027027  0.14299971  0.73608714  1.0
  P  P8437  1  0.92027027  0.28585685  0.73608714  1.0
  P  P8438  1  0.92027027  0.42871400  0.73608714  1.0
  P  P8439  1  0.92027027  0.57157114  0.73608714  1.0
  P  P8440  1  0.92027027  0.71442828  0.73608714  1.0
  P  P8441  1  0.92027027  0.85728543  0.73608714  1.0
  P  P8442  1  0.05471817  0.06804120  0.72373236  1.0
  P  P8443  1  0.05471817  0.21089835  0.72373236  1.0
  P  P8444  1  0.05471817  0.35375549  0.72373236  1.0
  P  P8445  1  0.05471817  0.49661263  0.72373236  1.0
  P  P8446  1  0.05471817  0.63946978  0.72373236  1.0
  P  P8447  1  0.05471817  0.78232692  0.72373236  1.0
  P  P8448  1  0.05471817  0.92518406  0.72373236  1.0
  P  P8449  1  0.16582928  0.06804120  0.72373236  1.0
  P  P8450  1  0.16582928  0.21089835  0.72373236  1.0
  P  P8451  1  0.16582928  0.35375549  0.72373236  1.0
  P  P8452  1  0.16582928  0.49661263  0.72373236  1.0
  P  P8453  1  0.16582928  0.63946978  0.72373236  1.0
  P  P8454  1  0.16582928  0.78232692  0.72373236  1.0
  P  P8455  1  0.16582928  0.92518406  0.72373236  1.0
  P  P8456  1  0.27694040  0.06804120  0.72373236  1.0
  P  P8457  1  0.27694040  0.21089835  0.72373236  1.0
  P  P8458  1  0.27694040  0.35375549  0.72373236  1.0
  P  P8459  1  0.27694040  0.49661263  0.72373236  1.0
  P  P8460  1  0.27694040  0.63946978  0.72373236  1.0
  P  P8461  1  0.27694040  0.78232692  0.72373236  1.0
  P  P8462  1  0.27694040  0.92518406  0.72373236  1.0
  P  P8463  1  0.38805151  0.06804120  0.72373236  1.0
  P  P8464  1  0.38805151  0.21089835  0.72373236  1.0
  P  P8465  1  0.38805151  0.35375549  0.72373236  1.0
  P  P8466  1  0.38805151  0.49661263  0.72373236  1.0
  P  P8467  1  0.38805151  0.63946978  0.72373236  1.0
  P  P8468  1  0.38805151  0.78232692  0.72373236  1.0
  P  P8469  1  0.38805151  0.92518406  0.72373236  1.0
  P  P8470  1  0.49916262  0.06804120  0.72373236  1.0
  P  P8471  1  0.49916262  0.21089835  0.72373236  1.0
  P  P8472  1  0.49916262  0.35375549  0.72373236  1.0
  P  P8473  1  0.49916262  0.49661263  0.72373236  1.0
  P  P8474  1  0.49916262  0.63946978  0.72373236  1.0
  P  P8475  1  0.49916262  0.78232692  0.72373236  1.0
  P  P8476  1  0.49916262  0.92518406  0.72373236  1.0
  P  P8477  1  0.61027373  0.06804120  0.72373236  1.0
  P  P8478  1  0.61027373  0.21089835  0.72373236  1.0
  P  P8479  1  0.61027373  0.35375549  0.72373236  1.0
  P  P8480  1  0.61027373  0.49661263  0.72373236  1.0
  P  P8481  1  0.61027373  0.63946978  0.72373236  1.0
  P  P8482  1  0.61027373  0.78232692  0.72373236  1.0
  P  P8483  1  0.61027373  0.92518406  0.72373236  1.0
  P  P8484  1  0.72138484  0.06804120  0.72373236  1.0
  P  P8485  1  0.72138484  0.21089835  0.72373236  1.0
  P  P8486  1  0.72138484  0.35375549  0.72373236  1.0
  P  P8487  1  0.72138484  0.49661263  0.72373236  1.0
  P  P8488  1  0.72138484  0.63946978  0.72373236  1.0
  P  P8489  1  0.72138484  0.78232692  0.72373236  1.0
  P  P8490  1  0.72138484  0.92518406  0.72373236  1.0
  P  P8491  1  0.83249595  0.06804120  0.72373236  1.0
  P  P8492  1  0.83249595  0.21089835  0.72373236  1.0
  P  P8493  1  0.83249595  0.35375549  0.72373236  1.0
  P  P8494  1  0.83249595  0.49661263  0.72373236  1.0
  P  P8495  1  0.83249595  0.63946978  0.72373236  1.0
  P  P8496  1  0.83249595  0.78232692  0.72373236  1.0
  P  P8497  1  0.83249595  0.92518406  0.72373236  1.0
  P  P8498  1  0.94360706  0.06804120  0.72373236  1.0
  P  P8499  1  0.94360706  0.21089835  0.72373236  1.0
  P  P8500  1  0.94360706  0.35375549  0.72373236  1.0
  P  P8501  1  0.94360706  0.49661263  0.72373236  1.0
  P  P8502  1  0.94360706  0.63946978  0.72373236  1.0
  P  P8503  1  0.94360706  0.78232692  0.72373236  1.0
  P  P8504  1  0.94360706  0.92518406  0.72373236  1.0
  P  P8505  1  0.03355415  0.05443576  0.67611332  1.0
  P  P8506  1  0.03355415  0.19729291  0.67611332  1.0
  P  P8507  1  0.03355415  0.34015005  0.67611332  1.0
  P  P8508  1  0.03355415  0.48300719  0.67611332  1.0
  P  P8509  1  0.03355415  0.62586433  0.67611332  1.0
  P  P8510  1  0.03355415  0.76872148  0.67611332  1.0
  P  P8511  1  0.03355415  0.91157862  0.67611332  1.0
  P  P8512  1  0.14466526  0.05443576  0.67611332  1.0
  P  P8513  1  0.14466526  0.19729291  0.67611332  1.0
  P  P8514  1  0.14466526  0.34015005  0.67611332  1.0
  P  P8515  1  0.14466526  0.48300719  0.67611332  1.0
  P  P8516  1  0.14466526  0.62586433  0.67611332  1.0
  P  P8517  1  0.14466526  0.76872148  0.67611332  1.0
  P  P8518  1  0.14466526  0.91157862  0.67611332  1.0
  P  P8519  1  0.25577637  0.05443576  0.67611332  1.0
  P  P8520  1  0.25577637  0.19729291  0.67611332  1.0
  P  P8521  1  0.25577637  0.34015005  0.67611332  1.0
  P  P8522  1  0.25577637  0.48300719  0.67611332  1.0
  P  P8523  1  0.25577637  0.62586433  0.67611332  1.0
  P  P8524  1  0.25577637  0.76872148  0.67611332  1.0
  P  P8525  1  0.25577637  0.91157862  0.67611332  1.0
  P  P8526  1  0.36688749  0.05443576  0.67611332  1.0
  P  P8527  1  0.36688749  0.19729291  0.67611332  1.0
  P  P8528  1  0.36688749  0.34015005  0.67611332  1.0
  P  P8529  1  0.36688749  0.48300719  0.67611332  1.0
  P  P8530  1  0.36688749  0.62586433  0.67611332  1.0
  P  P8531  1  0.36688749  0.76872148  0.67611332  1.0
  P  P8532  1  0.36688749  0.91157862  0.67611332  1.0
  P  P8533  1  0.47799860  0.05443576  0.67611332  1.0
  P  P8534  1  0.47799860  0.19729291  0.67611332  1.0
  P  P8535  1  0.47799860  0.34015005  0.67611332  1.0
  P  P8536  1  0.47799860  0.48300719  0.67611332  1.0
  P  P8537  1  0.47799860  0.62586433  0.67611332  1.0
  P  P8538  1  0.47799860  0.76872148  0.67611332  1.0
  P  P8539  1  0.47799860  0.91157862  0.67611332  1.0
  P  P8540  1  0.58910971  0.05443576  0.67611332  1.0
  P  P8541  1  0.58910971  0.19729291  0.67611332  1.0
  P  P8542  1  0.58910971  0.34015005  0.67611332  1.0
  P  P8543  1  0.58910971  0.48300719  0.67611332  1.0
  P  P8544  1  0.58910971  0.62586433  0.67611332  1.0
  P  P8545  1  0.58910971  0.76872148  0.67611332  1.0
  P  P8546  1  0.58910971  0.91157862  0.67611332  1.0
  P  P8547  1  0.70022082  0.05443576  0.67611332  1.0
  P  P8548  1  0.70022082  0.19729291  0.67611332  1.0
  P  P8549  1  0.70022082  0.34015005  0.67611332  1.0
  P  P8550  1  0.70022082  0.48300719  0.67611332  1.0
  P  P8551  1  0.70022082  0.62586433  0.67611332  1.0
  P  P8552  1  0.70022082  0.76872148  0.67611332  1.0
  P  P8553  1  0.70022082  0.91157862  0.67611332  1.0
  P  P8554  1  0.81133193  0.05443576  0.67611332  1.0
  P  P8555  1  0.81133193  0.19729291  0.67611332  1.0
  P  P8556  1  0.81133193  0.34015005  0.67611332  1.0
  P  P8557  1  0.81133193  0.48300719  0.67611332  1.0
  P  P8558  1  0.81133193  0.62586433  0.67611332  1.0
  P  P8559  1  0.81133193  0.76872148  0.67611332  1.0
  P  P8560  1  0.81133193  0.91157862  0.67611332  1.0
  P  P8561  1  0.92244304  0.05443576  0.67611332  1.0
  P  P8562  1  0.92244304  0.19729291  0.67611332  1.0
  P  P8563  1  0.92244304  0.34015005  0.67611332  1.0
  P  P8564  1  0.92244304  0.48300719  0.67611332  1.0
  P  P8565  1  0.92244304  0.62586433  0.67611332  1.0
  P  P8566  1  0.92244304  0.76872148  0.67611332  1.0
  P  P8567  1  0.92244304  0.91157862  0.67611332  1.0
  P  P8568  1  0.06409477  0.06821437  0.68469226  1.0
  P  P8569  1  0.06409477  0.21107151  0.68469226  1.0
  P  P8570  1  0.06409477  0.35392865  0.68469226  1.0
  P  P8571  1  0.06409477  0.49678580  0.68469226  1.0
  P  P8572  1  0.06409477  0.63964294  0.68469226  1.0
  P  P8573  1  0.06409477  0.78250008  0.68469226  1.0
  P  P8574  1  0.06409477  0.92535722  0.68469226  1.0
  P  P8575  1  0.17520588  0.06821437  0.68469226  1.0
  P  P8576  1  0.17520588  0.21107151  0.68469226  1.0
  P  P8577  1  0.17520588  0.35392865  0.68469226  1.0
  P  P8578  1  0.17520588  0.49678580  0.68469226  1.0
  P  P8579  1  0.17520588  0.63964294  0.68469226  1.0
  P  P8580  1  0.17520588  0.78250008  0.68469226  1.0
  P  P8581  1  0.17520588  0.92535722  0.68469226  1.0
  P  P8582  1  0.28631699  0.06821437  0.68469226  1.0
  P  P8583  1  0.28631699  0.21107151  0.68469226  1.0
  P  P8584  1  0.28631699  0.35392865  0.68469226  1.0
  P  P8585  1  0.28631699  0.49678580  0.68469226  1.0
  P  P8586  1  0.28631699  0.63964294  0.68469226  1.0
  P  P8587  1  0.28631699  0.78250008  0.68469226  1.0
  P  P8588  1  0.28631699  0.92535722  0.68469226  1.0
  P  P8589  1  0.39742810  0.06821437  0.68469226  1.0
  P  P8590  1  0.39742810  0.21107151  0.68469226  1.0
  P  P8591  1  0.39742810  0.35392865  0.68469226  1.0
  P  P8592  1  0.39742810  0.49678580  0.68469226  1.0
  P  P8593  1  0.39742810  0.63964294  0.68469226  1.0
  P  P8594  1  0.39742810  0.78250008  0.68469226  1.0
  P  P8595  1  0.39742810  0.92535722  0.68469226  1.0
  P  P8596  1  0.50853922  0.06821437  0.68469226  1.0
  P  P8597  1  0.50853922  0.21107151  0.68469226  1.0
  P  P8598  1  0.50853922  0.35392865  0.68469226  1.0
  P  P8599  1  0.50853922  0.49678580  0.68469226  1.0
  P  P8600  1  0.50853922  0.63964294  0.68469226  1.0
  P  P8601  1  0.50853922  0.78250008  0.68469226  1.0
  P  P8602  1  0.50853922  0.92535722  0.68469226  1.0
  P  P8603  1  0.61965033  0.06821437  0.68469226  1.0
  P  P8604  1  0.61965033  0.21107151  0.68469226  1.0
  P  P8605  1  0.61965033  0.35392865  0.68469226  1.0
  P  P8606  1  0.61965033  0.49678580  0.68469226  1.0
  P  P8607  1  0.61965033  0.63964294  0.68469226  1.0
  P  P8608  1  0.61965033  0.78250008  0.68469226  1.0
  P  P8609  1  0.61965033  0.92535722  0.68469226  1.0
  P  P8610  1  0.73076144  0.06821437  0.68469226  1.0
  P  P8611  1  0.73076144  0.21107151  0.68469226  1.0
  P  P8612  1  0.73076144  0.35392865  0.68469226  1.0
  P  P8613  1  0.73076144  0.49678580  0.68469226  1.0
  P  P8614  1  0.73076144  0.63964294  0.68469226  1.0
  P  P8615  1  0.73076144  0.78250008  0.68469226  1.0
  P  P8616  1  0.73076144  0.92535722  0.68469226  1.0
  P  P8617  1  0.84187255  0.06821437  0.68469226  1.0
  P  P8618  1  0.84187255  0.21107151  0.68469226  1.0
  P  P8619  1  0.84187255  0.35392865  0.68469226  1.0
  P  P8620  1  0.84187255  0.49678580  0.68469226  1.0
  P  P8621  1  0.84187255  0.63964294  0.68469226  1.0
  P  P8622  1  0.84187255  0.78250008  0.68469226  1.0
  P  P8623  1  0.84187255  0.92535722  0.68469226  1.0
  P  P8624  1  0.95298366  0.06821437  0.68469226  1.0
  P  P8625  1  0.95298366  0.21107151  0.68469226  1.0
  P  P8626  1  0.95298366  0.35392865  0.68469226  1.0
  P  P8627  1  0.95298366  0.49678580  0.68469226  1.0
  P  P8628  1  0.95298366  0.63964294  0.68469226  1.0
  P  P8629  1  0.95298366  0.78250008  0.68469226  1.0
  P  P8630  1  0.95298366  0.92535722  0.68469226  1.0
  P  P8631  1  0.08525879  0.08181981  0.73231131  1.0
  P  P8632  1  0.08525879  0.22467695  0.73231131  1.0
  P  P8633  1  0.08525879  0.36753410  0.73231131  1.0
  P  P8634  1  0.08525879  0.51039124  0.73231131  1.0
  P  P8635  1  0.08525879  0.65324838  0.73231131  1.0
  P  P8636  1  0.08525879  0.79610552  0.73231131  1.0
  P  P8637  1  0.08525879  0.93896267  0.73231131  1.0
  P  P8638  1  0.19636990  0.08181981  0.73231131  1.0
  P  P8639  1  0.19636990  0.22467695  0.73231131  1.0
  P  P8640  1  0.19636990  0.36753410  0.73231131  1.0
  P  P8641  1  0.19636990  0.51039124  0.73231131  1.0
  P  P8642  1  0.19636990  0.65324838  0.73231131  1.0
  P  P8643  1  0.19636990  0.79610552  0.73231131  1.0
  P  P8644  1  0.19636990  0.93896267  0.73231131  1.0
  P  P8645  1  0.30748101  0.08181981  0.73231131  1.0
  P  P8646  1  0.30748101  0.22467695  0.73231131  1.0
  P  P8647  1  0.30748101  0.36753410  0.73231131  1.0
  P  P8648  1  0.30748101  0.51039124  0.73231131  1.0
  P  P8649  1  0.30748101  0.65324838  0.73231131  1.0
  P  P8650  1  0.30748101  0.79610552  0.73231131  1.0
  P  P8651  1  0.30748101  0.93896267  0.73231131  1.0
  P  P8652  1  0.41859213  0.08181981  0.73231131  1.0
  P  P8653  1  0.41859213  0.22467695  0.73231131  1.0
  P  P8654  1  0.41859213  0.36753410  0.73231131  1.0
  P  P8655  1  0.41859213  0.51039124  0.73231131  1.0
  P  P8656  1  0.41859213  0.65324838  0.73231131  1.0
  P  P8657  1  0.41859213  0.79610552  0.73231131  1.0
  P  P8658  1  0.41859213  0.93896267  0.73231131  1.0
  P  P8659  1  0.52970324  0.08181981  0.73231131  1.0
  P  P8660  1  0.52970324  0.22467695  0.73231131  1.0
  P  P8661  1  0.52970324  0.36753410  0.73231131  1.0
  P  P8662  1  0.52970324  0.51039124  0.73231131  1.0
  P  P8663  1  0.52970324  0.65324838  0.73231131  1.0
  P  P8664  1  0.52970324  0.79610552  0.73231131  1.0
  P  P8665  1  0.52970324  0.93896267  0.73231131  1.0
  P  P8666  1  0.64081435  0.08181981  0.73231131  1.0
  P  P8667  1  0.64081435  0.22467695  0.73231131  1.0
  P  P8668  1  0.64081435  0.36753410  0.73231131  1.0
  P  P8669  1  0.64081435  0.51039124  0.73231131  1.0
  P  P8670  1  0.64081435  0.65324838  0.73231131  1.0
  P  P8671  1  0.64081435  0.79610552  0.73231131  1.0
  P  P8672  1  0.64081435  0.93896267  0.73231131  1.0
  P  P8673  1  0.75192546  0.08181981  0.73231131  1.0
  P  P8674  1  0.75192546  0.22467695  0.73231131  1.0
  P  P8675  1  0.75192546  0.36753410  0.73231131  1.0
  P  P8676  1  0.75192546  0.51039124  0.73231131  1.0
  P  P8677  1  0.75192546  0.65324838  0.73231131  1.0
  P  P8678  1  0.75192546  0.79610552  0.73231131  1.0
  P  P8679  1  0.75192546  0.93896267  0.73231131  1.0
  P  P8680  1  0.86303657  0.08181981  0.73231131  1.0
  P  P8681  1  0.86303657  0.22467695  0.73231131  1.0
  P  P8682  1  0.86303657  0.36753410  0.73231131  1.0
  P  P8683  1  0.86303657  0.51039124  0.73231131  1.0
  P  P8684  1  0.86303657  0.65324838  0.73231131  1.0
  P  P8685  1  0.86303657  0.79610552  0.73231131  1.0
  P  P8686  1  0.86303657  0.93896267  0.73231131  1.0
  P  P8687  1  0.97414768  0.08181981  0.73231131  1.0
  P  P8688  1  0.97414768  0.22467695  0.73231131  1.0
  P  P8689  1  0.97414768  0.36753410  0.73231131  1.0
  P  P8690  1  0.97414768  0.51039124  0.73231131  1.0
  P  P8691  1  0.97414768  0.65324838  0.73231131  1.0
  P  P8692  1  0.97414768  0.79610552  0.73231131  1.0
  P  P8693  1  0.97414768  0.93896267  0.73231131  1.0
