# generated using pymatgen
data_TiP2
_symmetry_space_group_name_H-M   'P 1'
_cell_length_a   63.18331892
_cell_length_b   66.12086672
_cell_length_c   61.82526222
_cell_angle_alpha   90.00000000
_cell_angle_beta   91.44602739
_cell_angle_gamma   90.00000000
_symmetry_Int_Tables_number   1
_chemical_formula_structural   TiP2
_chemical_formula_sum   'Ti3456 P6912'
_cell_volume   258207.35700094
_cell_formula_units_Z   3456
loop_
 _symmetry_equiv_pos_site_id
 _symmetry_equiv_pos_as_xyz
  1  'x, y, z'
loop_
 _atom_site_type_symbol
 _atom_site_label
 _atom_site_symmetry_multiplicity
 _atom_site_fract_x
 _atom_site_fract_y
 _atom_site_fract_z
 _atom_site_occupancy
  Ti  Ti0  1  0.00282651  0.04170092  0.24915413  1.0
  Ti  Ti1  1  0.00282651  0.16670092  0.24915413  1.0
  Ti  Ti2  1  0.00282651  0.29170092  0.24915413  1.0
  Ti  Ti3  1  0.00282651  0.41670092  0.24915413  1.0
  Ti  Ti4  1  0.00282651  0.54170092  0.24915413  1.0
  Ti  Ti5  1  0.00282651  0.66670092  0.24915413  1.0
  Ti  Ti6  1  0.00282651  0.79170092  0.24915413  1.0
  Ti  Ti7  1  0.00282651  0.91670092  0.24915413  1.0
  Ti  Ti8  1  0.11393763  0.04170092  0.24915413  1.0
  Ti  Ti9  1  0.11393763  0.16670092  0.24915413  1.0
  Ti  Ti10  1  0.11393763  0.29170092  0.24915413  1.0
  Ti  Ti11  1  0.11393763  0.41670092  0.24915413  1.0
  Ti  Ti12  1  0.11393763  0.54170092  0.24915413  1.0
  Ti  Ti13  1  0.11393763  0.66670092  0.24915413  1.0
  Ti  Ti14  1  0.11393763  0.79170092  0.24915413  1.0
  Ti  Ti15  1  0.11393763  0.91670092  0.24915413  1.0
  Ti  Ti16  1  0.22504874  0.04170092  0.24915413  1.0
  Ti  Ti17  1  0.22504874  0.16670092  0.24915413  1.0
  Ti  Ti18  1  0.22504874  0.29170092  0.24915413  1.0
  Ti  Ti19  1  0.22504874  0.41670092  0.24915413  1.0
  Ti  Ti20  1  0.22504874  0.54170092  0.24915413  1.0
  Ti  Ti21  1  0.22504874  0.66670092  0.24915413  1.0
  Ti  Ti22  1  0.22504874  0.79170092  0.24915413  1.0
  Ti  Ti23  1  0.22504874  0.91670092  0.24915413  1.0
  Ti  Ti24  1  0.33615985  0.04170092  0.24915413  1.0
  Ti  Ti25  1  0.33615985  0.16670092  0.24915413  1.0
  Ti  Ti26  1  0.33615985  0.29170092  0.24915413  1.0
  Ti  Ti27  1  0.33615985  0.41670092  0.24915413  1.0
  Ti  Ti28  1  0.33615985  0.54170092  0.24915413  1.0
  Ti  Ti29  1  0.33615985  0.66670092  0.24915413  1.0
  Ti  Ti30  1  0.33615985  0.79170092  0.24915413  1.0
  Ti  Ti31  1  0.33615985  0.91670092  0.24915413  1.0
  Ti  Ti32  1  0.44727096  0.04170092  0.24915413  1.0
  Ti  Ti33  1  0.44727096  0.16670092  0.24915413  1.0
  Ti  Ti34  1  0.44727096  0.29170092  0.24915413  1.0
  Ti  Ti35  1  0.44727096  0.41670092  0.24915413  1.0
  Ti  Ti36  1  0.44727096  0.54170092  0.24915413  1.0
  Ti  Ti37  1  0.44727096  0.66670092  0.24915413  1.0
  Ti  Ti38  1  0.44727096  0.79170092  0.24915413  1.0
  Ti  Ti39  1  0.44727096  0.91670092  0.24915413  1.0
  Ti  Ti40  1  0.55838207  0.04170092  0.24915413  1.0
  Ti  Ti41  1  0.55838207  0.16670092  0.24915413  1.0
  Ti  Ti42  1  0.55838207  0.29170092  0.24915413  1.0
  Ti  Ti43  1  0.55838207  0.41670092  0.24915413  1.0
  Ti  Ti44  1  0.55838207  0.54170092  0.24915413  1.0
  Ti  Ti45  1  0.55838207  0.66670092  0.24915413  1.0
  Ti  Ti46  1  0.55838207  0.79170092  0.24915413  1.0
  Ti  Ti47  1  0.55838207  0.91670092  0.24915413  1.0
  Ti  Ti48  1  0.66949318  0.04170092  0.24915413  1.0
  Ti  Ti49  1  0.66949318  0.16670092  0.24915413  1.0
  Ti  Ti50  1  0.66949318  0.29170092  0.24915413  1.0
  Ti  Ti51  1  0.66949318  0.41670092  0.24915413  1.0
  Ti  Ti52  1  0.66949318  0.54170092  0.24915413  1.0
  Ti  Ti53  1  0.66949318  0.66670092  0.24915413  1.0
  Ti  Ti54  1  0.66949318  0.79170092  0.24915413  1.0
  Ti  Ti55  1  0.66949318  0.91670092  0.24915413  1.0
  Ti  Ti56  1  0.78060429  0.04170092  0.24915413  1.0
  Ti  Ti57  1  0.78060429  0.16670092  0.24915413  1.0
  Ti  Ti58  1  0.78060429  0.29170092  0.24915413  1.0
  Ti  Ti59  1  0.78060429  0.41670092  0.24915413  1.0
  Ti  Ti60  1  0.78060429  0.54170092  0.24915413  1.0
  Ti  Ti61  1  0.78060429  0.66670092  0.24915413  1.0
  Ti  Ti62  1  0.78060429  0.79170092  0.24915413  1.0
  Ti  Ti63  1  0.78060429  0.91670092  0.24915413  1.0
  Ti  Ti64  1  0.89171540  0.04170092  0.24915413  1.0
  Ti  Ti65  1  0.89171540  0.16670092  0.24915413  1.0
  Ti  Ti66  1  0.89171540  0.29170092  0.24915413  1.0
  Ti  Ti67  1  0.89171540  0.41670092  0.24915413  1.0
  Ti  Ti68  1  0.89171540  0.54170092  0.24915413  1.0
  Ti  Ti69  1  0.89171540  0.66670092  0.24915413  1.0
  Ti  Ti70  1  0.89171540  0.79170092  0.24915413  1.0
  Ti  Ti71  1  0.89171540  0.91670092  0.24915413  1.0
  Ti  Ti72  1  0.05573657  0.04170092  0.34439223  1.0
  Ti  Ti73  1  0.05573657  0.16670092  0.34439223  1.0
  Ti  Ti74  1  0.05573657  0.29170092  0.34439223  1.0
  Ti  Ti75  1  0.05573657  0.41670092  0.34439223  1.0
  Ti  Ti76  1  0.05573657  0.54170092  0.34439223  1.0
  Ti  Ti77  1  0.05573657  0.66670092  0.34439223  1.0
  Ti  Ti78  1  0.05573657  0.79170092  0.34439223  1.0
  Ti  Ti79  1  0.05573657  0.91670092  0.34439223  1.0
  Ti  Ti80  1  0.16684768  0.04170092  0.34439223  1.0
  Ti  Ti81  1  0.16684768  0.16670092  0.34439223  1.0
  Ti  Ti82  1  0.16684768  0.29170092  0.34439223  1.0
  Ti  Ti83  1  0.16684768  0.41670092  0.34439223  1.0
  Ti  Ti84  1  0.16684768  0.54170092  0.34439223  1.0
  Ti  Ti85  1  0.16684768  0.66670092  0.34439223  1.0
  Ti  Ti86  1  0.16684768  0.79170092  0.34439223  1.0
  Ti  Ti87  1  0.16684768  0.91670092  0.34439223  1.0
  Ti  Ti88  1  0.27795879  0.04170092  0.34439223  1.0
  Ti  Ti89  1  0.27795879  0.16670092  0.34439223  1.0
  Ti  Ti90  1  0.27795879  0.29170092  0.34439223  1.0
  Ti  Ti91  1  0.27795879  0.41670092  0.34439223  1.0
  Ti  Ti92  1  0.27795879  0.54170092  0.34439223  1.0
  Ti  Ti93  1  0.27795879  0.66670092  0.34439223  1.0
  Ti  Ti94  1  0.27795879  0.79170092  0.34439223  1.0
  Ti  Ti95  1  0.27795879  0.91670092  0.34439223  1.0
  Ti  Ti96  1  0.38906990  0.04170092  0.34439223  1.0
  Ti  Ti97  1  0.38906990  0.16670092  0.34439223  1.0
  Ti  Ti98  1  0.38906990  0.29170092  0.34439223  1.0
  Ti  Ti99  1  0.38906990  0.41670092  0.34439223  1.0
  Ti  Ti100  1  0.38906990  0.54170092  0.34439223  1.0
  Ti  Ti101  1  0.38906990  0.66670092  0.34439223  1.0
  Ti  Ti102  1  0.38906990  0.79170092  0.34439223  1.0
  Ti  Ti103  1  0.38906990  0.91670092  0.34439223  1.0
  Ti  Ti104  1  0.50018101  0.04170092  0.34439223  1.0
  Ti  Ti105  1  0.50018101  0.16670092  0.34439223  1.0
  Ti  Ti106  1  0.50018101  0.29170092  0.34439223  1.0
  Ti  Ti107  1  0.50018101  0.41670092  0.34439223  1.0
  Ti  Ti108  1  0.50018101  0.54170092  0.34439223  1.0
  Ti  Ti109  1  0.50018101  0.66670092  0.34439223  1.0
  Ti  Ti110  1  0.50018101  0.79170092  0.34439223  1.0
  Ti  Ti111  1  0.50018101  0.91670092  0.34439223  1.0
  Ti  Ti112  1  0.61129212  0.04170092  0.34439223  1.0
  Ti  Ti113  1  0.61129212  0.16670092  0.34439223  1.0
  Ti  Ti114  1  0.61129212  0.29170092  0.34439223  1.0
  Ti  Ti115  1  0.61129212  0.41670092  0.34439223  1.0
  Ti  Ti116  1  0.61129212  0.54170092  0.34439223  1.0
  Ti  Ti117  1  0.61129212  0.66670092  0.34439223  1.0
  Ti  Ti118  1  0.61129212  0.79170092  0.34439223  1.0
  Ti  Ti119  1  0.61129212  0.91670092  0.34439223  1.0
  Ti  Ti120  1  0.72240323  0.04170092  0.34439223  1.0
  Ti  Ti121  1  0.72240323  0.16670092  0.34439223  1.0
  Ti  Ti122  1  0.72240323  0.29170092  0.34439223  1.0
  Ti  Ti123  1  0.72240323  0.41670092  0.34439223  1.0
  Ti  Ti124  1  0.72240323  0.54170092  0.34439223  1.0
  Ti  Ti125  1  0.72240323  0.66670092  0.34439223  1.0
  Ti  Ti126  1  0.72240323  0.79170092  0.34439223  1.0
  Ti  Ti127  1  0.72240323  0.91670092  0.34439223  1.0
  Ti  Ti128  1  0.83351434  0.04170092  0.34439223  1.0
  Ti  Ti129  1  0.83351434  0.16670092  0.34439223  1.0
  Ti  Ti130  1  0.83351434  0.29170092  0.34439223  1.0
  Ti  Ti131  1  0.83351434  0.41670092  0.34439223  1.0
  Ti  Ti132  1  0.83351434  0.54170092  0.34439223  1.0
  Ti  Ti133  1  0.83351434  0.66670092  0.34439223  1.0
  Ti  Ti134  1  0.83351434  0.79170092  0.34439223  1.0
  Ti  Ti135  1  0.83351434  0.91670092  0.34439223  1.0
  Ti  Ti136  1  0.94462546  0.04170092  0.34439223  1.0
  Ti  Ti137  1  0.94462546  0.16670092  0.34439223  1.0
  Ti  Ti138  1  0.94462546  0.29170092  0.34439223  1.0
  Ti  Ti139  1  0.94462546  0.41670092  0.34439223  1.0
  Ti  Ti140  1  0.94462546  0.54170092  0.34439223  1.0
  Ti  Ti141  1  0.94462546  0.66670092  0.34439223  1.0
  Ti  Ti142  1  0.94462546  0.79170092  0.34439223  1.0
  Ti  Ti143  1  0.94462546  0.91670092  0.34439223  1.0
  Ti  Ti144  1  0.02928154  0.04170092  0.29677318  1.0
  Ti  Ti145  1  0.02928154  0.16670092  0.29677318  1.0
  Ti  Ti146  1  0.02928154  0.29170092  0.29677318  1.0
  Ti  Ti147  1  0.02928154  0.41670092  0.29677318  1.0
  Ti  Ti148  1  0.02928154  0.54170092  0.29677318  1.0
  Ti  Ti149  1  0.02928154  0.66670092  0.29677318  1.0
  Ti  Ti150  1  0.02928154  0.79170092  0.29677318  1.0
  Ti  Ti151  1  0.02928154  0.91670092  0.29677318  1.0
  Ti  Ti152  1  0.14039265  0.04170092  0.29677318  1.0
  Ti  Ti153  1  0.14039265  0.16670092  0.29677318  1.0
  Ti  Ti154  1  0.14039265  0.29170092  0.29677318  1.0
  Ti  Ti155  1  0.14039265  0.41670092  0.29677318  1.0
  Ti  Ti156  1  0.14039265  0.54170092  0.29677318  1.0
  Ti  Ti157  1  0.14039265  0.66670092  0.29677318  1.0
  Ti  Ti158  1  0.14039265  0.79170092  0.29677318  1.0
  Ti  Ti159  1  0.14039265  0.91670092  0.29677318  1.0
  Ti  Ti160  1  0.25150376  0.04170092  0.29677318  1.0
  Ti  Ti161  1  0.25150376  0.16670092  0.29677318  1.0
  Ti  Ti162  1  0.25150376  0.29170092  0.29677318  1.0
  Ti  Ti163  1  0.25150376  0.41670092  0.29677318  1.0
  Ti  Ti164  1  0.25150376  0.54170092  0.29677318  1.0
  Ti  Ti165  1  0.25150376  0.66670092  0.29677318  1.0
  Ti  Ti166  1  0.25150376  0.79170092  0.29677318  1.0
  Ti  Ti167  1  0.25150376  0.91670092  0.29677318  1.0
  Ti  Ti168  1  0.36261487  0.04170092  0.29677318  1.0
  Ti  Ti169  1  0.36261487  0.16670092  0.29677318  1.0
  Ti  Ti170  1  0.36261487  0.29170092  0.29677318  1.0
  Ti  Ti171  1  0.36261487  0.41670092  0.29677318  1.0
  Ti  Ti172  1  0.36261487  0.54170092  0.29677318  1.0
  Ti  Ti173  1  0.36261487  0.66670092  0.29677318  1.0
  Ti  Ti174  1  0.36261487  0.79170092  0.29677318  1.0
  Ti  Ti175  1  0.36261487  0.91670092  0.29677318  1.0
  Ti  Ti176  1  0.47372599  0.04170092  0.29677318  1.0
  Ti  Ti177  1  0.47372599  0.16670092  0.29677318  1.0
  Ti  Ti178  1  0.47372599  0.29170092  0.29677318  1.0
  Ti  Ti179  1  0.47372599  0.41670092  0.29677318  1.0
  Ti  Ti180  1  0.47372599  0.54170092  0.29677318  1.0
  Ti  Ti181  1  0.47372599  0.66670092  0.29677318  1.0
  Ti  Ti182  1  0.47372599  0.79170092  0.29677318  1.0
  Ti  Ti183  1  0.47372599  0.91670092  0.29677318  1.0
  Ti  Ti184  1  0.58483710  0.04170092  0.29677318  1.0
  Ti  Ti185  1  0.58483710  0.16670092  0.29677318  1.0
  Ti  Ti186  1  0.58483710  0.29170092  0.29677318  1.0
  Ti  Ti187  1  0.58483710  0.41670092  0.29677318  1.0
  Ti  Ti188  1  0.58483710  0.54170092  0.29677318  1.0
  Ti  Ti189  1  0.58483710  0.66670092  0.29677318  1.0
  Ti  Ti190  1  0.58483710  0.79170092  0.29677318  1.0
  Ti  Ti191  1  0.58483710  0.91670092  0.29677318  1.0
  Ti  Ti192  1  0.69594821  0.04170092  0.29677318  1.0
  Ti  Ti193  1  0.69594821  0.16670092  0.29677318  1.0
  Ti  Ti194  1  0.69594821  0.29170092  0.29677318  1.0
  Ti  Ti195  1  0.69594821  0.41670092  0.29677318  1.0
  Ti  Ti196  1  0.69594821  0.54170092  0.29677318  1.0
  Ti  Ti197  1  0.69594821  0.66670092  0.29677318  1.0
  Ti  Ti198  1  0.69594821  0.79170092  0.29677318  1.0
  Ti  Ti199  1  0.69594821  0.91670092  0.29677318  1.0
  Ti  Ti200  1  0.80705932  0.04170092  0.29677318  1.0
  Ti  Ti201  1  0.80705932  0.16670092  0.29677318  1.0
  Ti  Ti202  1  0.80705932  0.29170092  0.29677318  1.0
  Ti  Ti203  1  0.80705932  0.41670092  0.29677318  1.0
  Ti  Ti204  1  0.80705932  0.54170092  0.29677318  1.0
  Ti  Ti205  1  0.80705932  0.66670092  0.29677318  1.0
  Ti  Ti206  1  0.80705932  0.79170092  0.29677318  1.0
  Ti  Ti207  1  0.80705932  0.91670092  0.29677318  1.0
  Ti  Ti208  1  0.91817043  0.04170092  0.29677318  1.0
  Ti  Ti209  1  0.91817043  0.16670092  0.29677318  1.0
  Ti  Ti210  1  0.91817043  0.29170092  0.29677318  1.0
  Ti  Ti211  1  0.91817043  0.41670092  0.29677318  1.0
  Ti  Ti212  1  0.91817043  0.54170092  0.29677318  1.0
  Ti  Ti213  1  0.91817043  0.66670092  0.29677318  1.0
  Ti  Ti214  1  0.91817043  0.79170092  0.29677318  1.0
  Ti  Ti215  1  0.91817043  0.91670092  0.29677318  1.0
  Ti  Ti216  1  0.05537454  0.08329908  0.25084587  1.0
  Ti  Ti217  1  0.05537454  0.20829908  0.25084587  1.0
  Ti  Ti218  1  0.05537454  0.33329908  0.25084587  1.0
  Ti  Ti219  1  0.05537454  0.45829908  0.25084587  1.0
  Ti  Ti220  1  0.05537454  0.58329908  0.25084587  1.0
  Ti  Ti221  1  0.05537454  0.70829908  0.25084587  1.0
  Ti  Ti222  1  0.05537454  0.83329908  0.25084587  1.0
  Ti  Ti223  1  0.05537454  0.95829908  0.25084587  1.0
  Ti  Ti224  1  0.16648566  0.08329908  0.25084587  1.0
  Ti  Ti225  1  0.16648566  0.20829908  0.25084587  1.0
  Ti  Ti226  1  0.16648566  0.33329908  0.25084587  1.0
  Ti  Ti227  1  0.16648566  0.45829908  0.25084587  1.0
  Ti  Ti228  1  0.16648566  0.58329908  0.25084587  1.0
  Ti  Ti229  1  0.16648566  0.70829908  0.25084587  1.0
  Ti  Ti230  1  0.16648566  0.83329908  0.25084587  1.0
  Ti  Ti231  1  0.16648566  0.95829908  0.25084587  1.0
  Ti  Ti232  1  0.27759677  0.08329908  0.25084587  1.0
  Ti  Ti233  1  0.27759677  0.20829908  0.25084587  1.0
  Ti  Ti234  1  0.27759677  0.33329908  0.25084587  1.0
  Ti  Ti235  1  0.27759677  0.45829908  0.25084587  1.0
  Ti  Ti236  1  0.27759677  0.58329908  0.25084587  1.0
  Ti  Ti237  1  0.27759677  0.70829908  0.25084587  1.0
  Ti  Ti238  1  0.27759677  0.83329908  0.25084587  1.0
  Ti  Ti239  1  0.27759677  0.95829908  0.25084587  1.0
  Ti  Ti240  1  0.38870788  0.08329908  0.25084587  1.0
  Ti  Ti241  1  0.38870788  0.20829908  0.25084587  1.0
  Ti  Ti242  1  0.38870788  0.33329908  0.25084587  1.0
  Ti  Ti243  1  0.38870788  0.45829908  0.25084587  1.0
  Ti  Ti244  1  0.38870788  0.58329908  0.25084587  1.0
  Ti  Ti245  1  0.38870788  0.70829908  0.25084587  1.0
  Ti  Ti246  1  0.38870788  0.83329908  0.25084587  1.0
  Ti  Ti247  1  0.38870788  0.95829908  0.25084587  1.0
  Ti  Ti248  1  0.49981899  0.08329908  0.25084587  1.0
  Ti  Ti249  1  0.49981899  0.20829908  0.25084587  1.0
  Ti  Ti250  1  0.49981899  0.33329908  0.25084587  1.0
  Ti  Ti251  1  0.49981899  0.45829908  0.25084587  1.0
  Ti  Ti252  1  0.49981899  0.58329908  0.25084587  1.0
  Ti  Ti253  1  0.49981899  0.70829908  0.25084587  1.0
  Ti  Ti254  1  0.49981899  0.83329908  0.25084587  1.0
  Ti  Ti255  1  0.49981899  0.95829908  0.25084587  1.0
  Ti  Ti256  1  0.61093010  0.08329908  0.25084587  1.0
  Ti  Ti257  1  0.61093010  0.20829908  0.25084587  1.0
  Ti  Ti258  1  0.61093010  0.33329908  0.25084587  1.0
  Ti  Ti259  1  0.61093010  0.45829908  0.25084587  1.0
  Ti  Ti260  1  0.61093010  0.58329908  0.25084587  1.0
  Ti  Ti261  1  0.61093010  0.70829908  0.25084587  1.0
  Ti  Ti262  1  0.61093010  0.83329908  0.25084587  1.0
  Ti  Ti263  1  0.61093010  0.95829908  0.25084587  1.0
  Ti  Ti264  1  0.72204121  0.08329908  0.25084587  1.0
  Ti  Ti265  1  0.72204121  0.20829908  0.25084587  1.0
  Ti  Ti266  1  0.72204121  0.33329908  0.25084587  1.0
  Ti  Ti267  1  0.72204121  0.45829908  0.25084587  1.0
  Ti  Ti268  1  0.72204121  0.58329908  0.25084587  1.0
  Ti  Ti269  1  0.72204121  0.70829908  0.25084587  1.0
  Ti  Ti270  1  0.72204121  0.83329908  0.25084587  1.0
  Ti  Ti271  1  0.72204121  0.95829908  0.25084587  1.0
  Ti  Ti272  1  0.83315232  0.08329908  0.25084587  1.0
  Ti  Ti273  1  0.83315232  0.20829908  0.25084587  1.0
  Ti  Ti274  1  0.83315232  0.33329908  0.25084587  1.0
  Ti  Ti275  1  0.83315232  0.45829908  0.25084587  1.0
  Ti  Ti276  1  0.83315232  0.58329908  0.25084587  1.0
  Ti  Ti277  1  0.83315232  0.70829908  0.25084587  1.0
  Ti  Ti278  1  0.83315232  0.83329908  0.25084587  1.0
  Ti  Ti279  1  0.83315232  0.95829908  0.25084587  1.0
  Ti  Ti280  1  0.94426343  0.08329908  0.25084587  1.0
  Ti  Ti281  1  0.94426343  0.20829908  0.25084587  1.0
  Ti  Ti282  1  0.94426343  0.33329908  0.25084587  1.0
  Ti  Ti283  1  0.94426343  0.45829908  0.25084587  1.0
  Ti  Ti284  1  0.94426343  0.58329908  0.25084587  1.0
  Ti  Ti285  1  0.94426343  0.70829908  0.25084587  1.0
  Ti  Ti286  1  0.94426343  0.83329908  0.25084587  1.0
  Ti  Ti287  1  0.94426343  0.95829908  0.25084587  1.0
  Ti  Ti288  1  0.10828460  0.08329908  0.34608396  1.0
  Ti  Ti289  1  0.10828460  0.20829908  0.34608396  1.0
  Ti  Ti290  1  0.10828460  0.33329908  0.34608396  1.0
  Ti  Ti291  1  0.10828460  0.45829908  0.34608396  1.0
  Ti  Ti292  1  0.10828460  0.58329908  0.34608396  1.0
  Ti  Ti293  1  0.10828460  0.70829908  0.34608396  1.0
  Ti  Ti294  1  0.10828460  0.83329908  0.34608396  1.0
  Ti  Ti295  1  0.10828460  0.95829908  0.34608396  1.0
  Ti  Ti296  1  0.21939571  0.08329908  0.34608396  1.0
  Ti  Ti297  1  0.21939571  0.20829908  0.34608396  1.0
  Ti  Ti298  1  0.21939571  0.33329908  0.34608396  1.0
  Ti  Ti299  1  0.21939571  0.45829908  0.34608396  1.0
  Ti  Ti300  1  0.21939571  0.58329908  0.34608396  1.0
  Ti  Ti301  1  0.21939571  0.70829908  0.34608396  1.0
  Ti  Ti302  1  0.21939571  0.83329908  0.34608396  1.0
  Ti  Ti303  1  0.21939571  0.95829908  0.34608396  1.0
  Ti  Ti304  1  0.33050682  0.08329908  0.34608396  1.0
  Ti  Ti305  1  0.33050682  0.20829908  0.34608396  1.0
  Ti  Ti306  1  0.33050682  0.33329908  0.34608396  1.0
  Ti  Ti307  1  0.33050682  0.45829908  0.34608396  1.0
  Ti  Ti308  1  0.33050682  0.58329908  0.34608396  1.0
  Ti  Ti309  1  0.33050682  0.70829908  0.34608396  1.0
  Ti  Ti310  1  0.33050682  0.83329908  0.34608396  1.0
  Ti  Ti311  1  0.33050682  0.95829908  0.34608396  1.0
  Ti  Ti312  1  0.44161793  0.08329908  0.34608396  1.0
  Ti  Ti313  1  0.44161793  0.20829908  0.34608396  1.0
  Ti  Ti314  1  0.44161793  0.33329908  0.34608396  1.0
  Ti  Ti315  1  0.44161793  0.45829908  0.34608396  1.0
  Ti  Ti316  1  0.44161793  0.58329908  0.34608396  1.0
  Ti  Ti317  1  0.44161793  0.70829908  0.34608396  1.0
  Ti  Ti318  1  0.44161793  0.83329908  0.34608396  1.0
  Ti  Ti319  1  0.44161793  0.95829908  0.34608396  1.0
  Ti  Ti320  1  0.55272904  0.08329908  0.34608396  1.0
  Ti  Ti321  1  0.55272904  0.20829908  0.34608396  1.0
  Ti  Ti322  1  0.55272904  0.33329908  0.34608396  1.0
  Ti  Ti323  1  0.55272904  0.45829908  0.34608396  1.0
  Ti  Ti324  1  0.55272904  0.58329908  0.34608396  1.0
  Ti  Ti325  1  0.55272904  0.70829908  0.34608396  1.0
  Ti  Ti326  1  0.55272904  0.83329908  0.34608396  1.0
  Ti  Ti327  1  0.55272904  0.95829908  0.34608396  1.0
  Ti  Ti328  1  0.66384015  0.08329908  0.34608396  1.0
  Ti  Ti329  1  0.66384015  0.20829908  0.34608396  1.0
  Ti  Ti330  1  0.66384015  0.33329908  0.34608396  1.0
  Ti  Ti331  1  0.66384015  0.45829908  0.34608396  1.0
  Ti  Ti332  1  0.66384015  0.58329908  0.34608396  1.0
  Ti  Ti333  1  0.66384015  0.70829908  0.34608396  1.0
  Ti  Ti334  1  0.66384015  0.83329908  0.34608396  1.0
  Ti  Ti335  1  0.66384015  0.95829908  0.34608396  1.0
  Ti  Ti336  1  0.77495126  0.08329908  0.34608396  1.0
  Ti  Ti337  1  0.77495126  0.20829908  0.34608396  1.0
  Ti  Ti338  1  0.77495126  0.33329908  0.34608396  1.0
  Ti  Ti339  1  0.77495126  0.45829908  0.34608396  1.0
  Ti  Ti340  1  0.77495126  0.58329908  0.34608396  1.0
  Ti  Ti341  1  0.77495126  0.70829908  0.34608396  1.0
  Ti  Ti342  1  0.77495126  0.83329908  0.34608396  1.0
  Ti  Ti343  1  0.77495126  0.95829908  0.34608396  1.0
  Ti  Ti344  1  0.88606237  0.08329908  0.34608396  1.0
  Ti  Ti345  1  0.88606237  0.20829908  0.34608396  1.0
  Ti  Ti346  1  0.88606237  0.33329908  0.34608396  1.0
  Ti  Ti347  1  0.88606237  0.45829908  0.34608396  1.0
  Ti  Ti348  1  0.88606237  0.58329908  0.34608396  1.0
  Ti  Ti349  1  0.88606237  0.70829908  0.34608396  1.0
  Ti  Ti350  1  0.88606237  0.83329908  0.34608396  1.0
  Ti  Ti351  1  0.88606237  0.95829908  0.34608396  1.0
  Ti  Ti352  1  0.99717349  0.08329908  0.34608396  1.0
  Ti  Ti353  1  0.99717349  0.20829908  0.34608396  1.0
  Ti  Ti354  1  0.99717349  0.33329908  0.34608396  1.0
  Ti  Ti355  1  0.99717349  0.45829908  0.34608396  1.0
  Ti  Ti356  1  0.99717349  0.58329908  0.34608396  1.0
  Ti  Ti357  1  0.99717349  0.70829908  0.34608396  1.0
  Ti  Ti358  1  0.99717349  0.83329908  0.34608396  1.0
  Ti  Ti359  1  0.99717349  0.95829908  0.34608396  1.0
  Ti  Ti360  1  0.08182957  0.08329908  0.29846491  1.0
  Ti  Ti361  1  0.08182957  0.20829908  0.29846491  1.0
  Ti  Ti362  1  0.08182957  0.33329908  0.29846491  1.0
  Ti  Ti363  1  0.08182957  0.45829908  0.29846491  1.0
  Ti  Ti364  1  0.08182957  0.58329908  0.29846491  1.0
  Ti  Ti365  1  0.08182957  0.70829908  0.29846491  1.0
  Ti  Ti366  1  0.08182957  0.83329908  0.29846491  1.0
  Ti  Ti367  1  0.08182957  0.95829908  0.29846491  1.0
  Ti  Ti368  1  0.19294068  0.08329908  0.29846491  1.0
  Ti  Ti369  1  0.19294068  0.20829908  0.29846491  1.0
  Ti  Ti370  1  0.19294068  0.33329908  0.29846491  1.0
  Ti  Ti371  1  0.19294068  0.45829908  0.29846491  1.0
  Ti  Ti372  1  0.19294068  0.58329908  0.29846491  1.0
  Ti  Ti373  1  0.19294068  0.70829908  0.29846491  1.0
  Ti  Ti374  1  0.19294068  0.83329908  0.29846491  1.0
  Ti  Ti375  1  0.19294068  0.95829908  0.29846491  1.0
  Ti  Ti376  1  0.30405179  0.08329908  0.29846491  1.0
  Ti  Ti377  1  0.30405179  0.20829908  0.29846491  1.0
  Ti  Ti378  1  0.30405179  0.33329908  0.29846491  1.0
  Ti  Ti379  1  0.30405179  0.45829908  0.29846491  1.0
  Ti  Ti380  1  0.30405179  0.58329908  0.29846491  1.0
  Ti  Ti381  1  0.30405179  0.70829908  0.29846491  1.0
  Ti  Ti382  1  0.30405179  0.83329908  0.29846491  1.0
  Ti  Ti383  1  0.30405179  0.95829908  0.29846491  1.0
  Ti  Ti384  1  0.41516290  0.08329908  0.29846491  1.0
  Ti  Ti385  1  0.41516290  0.20829908  0.29846491  1.0
  Ti  Ti386  1  0.41516290  0.33329908  0.29846491  1.0
  Ti  Ti387  1  0.41516290  0.45829908  0.29846491  1.0
  Ti  Ti388  1  0.41516290  0.58329908  0.29846491  1.0
  Ti  Ti389  1  0.41516290  0.70829908  0.29846491  1.0
  Ti  Ti390  1  0.41516290  0.83329908  0.29846491  1.0
  Ti  Ti391  1  0.41516290  0.95829908  0.29846491  1.0
  Ti  Ti392  1  0.52627401  0.08329908  0.29846491  1.0
  Ti  Ti393  1  0.52627401  0.20829908  0.29846491  1.0
  Ti  Ti394  1  0.52627401  0.33329908  0.29846491  1.0
  Ti  Ti395  1  0.52627401  0.45829908  0.29846491  1.0
  Ti  Ti396  1  0.52627401  0.58329908  0.29846491  1.0
  Ti  Ti397  1  0.52627401  0.70829908  0.29846491  1.0
  Ti  Ti398  1  0.52627401  0.83329908  0.29846491  1.0
  Ti  Ti399  1  0.52627401  0.95829908  0.29846491  1.0
  Ti  Ti400  1  0.63738513  0.08329908  0.29846491  1.0
  Ti  Ti401  1  0.63738513  0.20829908  0.29846491  1.0
  Ti  Ti402  1  0.63738513  0.33329908  0.29846491  1.0
  Ti  Ti403  1  0.63738513  0.45829908  0.29846491  1.0
  Ti  Ti404  1  0.63738513  0.58329908  0.29846491  1.0
  Ti  Ti405  1  0.63738513  0.70829908  0.29846491  1.0
  Ti  Ti406  1  0.63738513  0.83329908  0.29846491  1.0
  Ti  Ti407  1  0.63738513  0.95829908  0.29846491  1.0
  Ti  Ti408  1  0.74849624  0.08329908  0.29846491  1.0
  Ti  Ti409  1  0.74849624  0.20829908  0.29846491  1.0
  Ti  Ti410  1  0.74849624  0.33329908  0.29846491  1.0
  Ti  Ti411  1  0.74849624  0.45829908  0.29846491  1.0
  Ti  Ti412  1  0.74849624  0.58329908  0.29846491  1.0
  Ti  Ti413  1  0.74849624  0.70829908  0.29846491  1.0
  Ti  Ti414  1  0.74849624  0.83329908  0.29846491  1.0
  Ti  Ti415  1  0.74849624  0.95829908  0.29846491  1.0
  Ti  Ti416  1  0.85960735  0.08329908  0.29846491  1.0
  Ti  Ti417  1  0.85960735  0.20829908  0.29846491  1.0
  Ti  Ti418  1  0.85960735  0.33329908  0.29846491  1.0
  Ti  Ti419  1  0.85960735  0.45829908  0.29846491  1.0
  Ti  Ti420  1  0.85960735  0.58329908  0.29846491  1.0
  Ti  Ti421  1  0.85960735  0.70829908  0.29846491  1.0
  Ti  Ti422  1  0.85960735  0.83329908  0.29846491  1.0
  Ti  Ti423  1  0.85960735  0.95829908  0.29846491  1.0
  Ti  Ti424  1  0.97071846  0.08329908  0.29846491  1.0
  Ti  Ti425  1  0.97071846  0.20829908  0.29846491  1.0
  Ti  Ti426  1  0.97071846  0.33329908  0.29846491  1.0
  Ti  Ti427  1  0.97071846  0.45829908  0.29846491  1.0
  Ti  Ti428  1  0.97071846  0.58329908  0.29846491  1.0
  Ti  Ti429  1  0.97071846  0.70829908  0.29846491  1.0
  Ti  Ti430  1  0.97071846  0.83329908  0.29846491  1.0
  Ti  Ti431  1  0.97071846  0.95829908  0.29846491  1.0
  Ti  Ti432  1  0.07160958  0.02079908  0.27296366  1.0
  Ti  Ti433  1  0.07160958  0.14579908  0.27296366  1.0
  Ti  Ti434  1  0.07160958  0.27079908  0.27296366  1.0
  Ti  Ti435  1  0.07160958  0.39579908  0.27296366  1.0
  Ti  Ti436  1  0.07160958  0.52079908  0.27296366  1.0
  Ti  Ti437  1  0.07160958  0.64579908  0.27296366  1.0
  Ti  Ti438  1  0.07160958  0.77079908  0.27296366  1.0
  Ti  Ti439  1  0.07160958  0.89579908  0.27296366  1.0
  Ti  Ti440  1  0.18272069  0.02079908  0.27296366  1.0
  Ti  Ti441  1  0.18272069  0.14579908  0.27296366  1.0
  Ti  Ti442  1  0.18272069  0.27079908  0.27296366  1.0
  Ti  Ti443  1  0.18272069  0.39579908  0.27296366  1.0
  Ti  Ti444  1  0.18272069  0.52079908  0.27296366  1.0
  Ti  Ti445  1  0.18272069  0.64579908  0.27296366  1.0
  Ti  Ti446  1  0.18272069  0.77079908  0.27296366  1.0
  Ti  Ti447  1  0.18272069  0.89579908  0.27296366  1.0
  Ti  Ti448  1  0.29383181  0.02079908  0.27296366  1.0
  Ti  Ti449  1  0.29383181  0.14579908  0.27296366  1.0
  Ti  Ti450  1  0.29383181  0.27079908  0.27296366  1.0
  Ti  Ti451  1  0.29383181  0.39579908  0.27296366  1.0
  Ti  Ti452  1  0.29383181  0.52079908  0.27296366  1.0
  Ti  Ti453  1  0.29383181  0.64579908  0.27296366  1.0
  Ti  Ti454  1  0.29383181  0.77079908  0.27296366  1.0
  Ti  Ti455  1  0.29383181  0.89579908  0.27296366  1.0
  Ti  Ti456  1  0.40494292  0.02079908  0.27296366  1.0
  Ti  Ti457  1  0.40494292  0.14579908  0.27296366  1.0
  Ti  Ti458  1  0.40494292  0.27079908  0.27296366  1.0
  Ti  Ti459  1  0.40494292  0.39579908  0.27296366  1.0
  Ti  Ti460  1  0.40494292  0.52079908  0.27296366  1.0
  Ti  Ti461  1  0.40494292  0.64579908  0.27296366  1.0
  Ti  Ti462  1  0.40494292  0.77079908  0.27296366  1.0
  Ti  Ti463  1  0.40494292  0.89579908  0.27296366  1.0
  Ti  Ti464  1  0.51605403  0.02079908  0.27296366  1.0
  Ti  Ti465  1  0.51605403  0.14579908  0.27296366  1.0
  Ti  Ti466  1  0.51605403  0.27079908  0.27296366  1.0
  Ti  Ti467  1  0.51605403  0.39579908  0.27296366  1.0
  Ti  Ti468  1  0.51605403  0.52079908  0.27296366  1.0
  Ti  Ti469  1  0.51605403  0.64579908  0.27296366  1.0
  Ti  Ti470  1  0.51605403  0.77079908  0.27296366  1.0
  Ti  Ti471  1  0.51605403  0.89579908  0.27296366  1.0
  Ti  Ti472  1  0.62716514  0.02079908  0.27296366  1.0
  Ti  Ti473  1  0.62716514  0.14579908  0.27296366  1.0
  Ti  Ti474  1  0.62716514  0.27079908  0.27296366  1.0
  Ti  Ti475  1  0.62716514  0.39579908  0.27296366  1.0
  Ti  Ti476  1  0.62716514  0.52079908  0.27296366  1.0
  Ti  Ti477  1  0.62716514  0.64579908  0.27296366  1.0
  Ti  Ti478  1  0.62716514  0.77079908  0.27296366  1.0
  Ti  Ti479  1  0.62716514  0.89579908  0.27296366  1.0
  Ti  Ti480  1  0.73827625  0.02079908  0.27296366  1.0
  Ti  Ti481  1  0.73827625  0.14579908  0.27296366  1.0
  Ti  Ti482  1  0.73827625  0.27079908  0.27296366  1.0
  Ti  Ti483  1  0.73827625  0.39579908  0.27296366  1.0
  Ti  Ti484  1  0.73827625  0.52079908  0.27296366  1.0
  Ti  Ti485  1  0.73827625  0.64579908  0.27296366  1.0
  Ti  Ti486  1  0.73827625  0.77079908  0.27296366  1.0
  Ti  Ti487  1  0.73827625  0.89579908  0.27296366  1.0
  Ti  Ti488  1  0.84938736  0.02079908  0.27296366  1.0
  Ti  Ti489  1  0.84938736  0.14579908  0.27296366  1.0
  Ti  Ti490  1  0.84938736  0.27079908  0.27296366  1.0
  Ti  Ti491  1  0.84938736  0.39579908  0.27296366  1.0
  Ti  Ti492  1  0.84938736  0.52079908  0.27296366  1.0
  Ti  Ti493  1  0.84938736  0.64579908  0.27296366  1.0
  Ti  Ti494  1  0.84938736  0.77079908  0.27296366  1.0
  Ti  Ti495  1  0.84938736  0.89579908  0.27296366  1.0
  Ti  Ti496  1  0.96049847  0.02079908  0.27296366  1.0
  Ti  Ti497  1  0.96049847  0.14579908  0.27296366  1.0
  Ti  Ti498  1  0.96049847  0.27079908  0.27296366  1.0
  Ti  Ti499  1  0.96049847  0.39579908  0.27296366  1.0
  Ti  Ti500  1  0.96049847  0.52079908  0.27296366  1.0
  Ti  Ti501  1  0.96049847  0.64579908  0.27296366  1.0
  Ti  Ti502  1  0.96049847  0.77079908  0.27296366  1.0
  Ti  Ti503  1  0.96049847  0.89579908  0.27296366  1.0
  Ti  Ti504  1  0.04515456  0.02079908  0.22534461  1.0
  Ti  Ti505  1  0.04515456  0.14579908  0.22534461  1.0
  Ti  Ti506  1  0.04515456  0.27079908  0.22534461  1.0
  Ti  Ti507  1  0.04515456  0.39579908  0.22534461  1.0
  Ti  Ti508  1  0.04515456  0.52079908  0.22534461  1.0
  Ti  Ti509  1  0.04515456  0.64579908  0.22534461  1.0
  Ti  Ti510  1  0.04515456  0.77079908  0.22534461  1.0
  Ti  Ti511  1  0.04515456  0.89579908  0.22534461  1.0
  Ti  Ti512  1  0.15626567  0.02079908  0.22534461  1.0
  Ti  Ti513  1  0.15626567  0.14579908  0.22534461  1.0
  Ti  Ti514  1  0.15626567  0.27079908  0.22534461  1.0
  Ti  Ti515  1  0.15626567  0.39579908  0.22534461  1.0
  Ti  Ti516  1  0.15626567  0.52079908  0.22534461  1.0
  Ti  Ti517  1  0.15626567  0.64579908  0.22534461  1.0
  Ti  Ti518  1  0.15626567  0.77079908  0.22534461  1.0
  Ti  Ti519  1  0.15626567  0.89579908  0.22534461  1.0
  Ti  Ti520  1  0.26737678  0.02079908  0.22534461  1.0
  Ti  Ti521  1  0.26737678  0.14579908  0.22534461  1.0
  Ti  Ti522  1  0.26737678  0.27079908  0.22534461  1.0
  Ti  Ti523  1  0.26737678  0.39579908  0.22534461  1.0
  Ti  Ti524  1  0.26737678  0.52079908  0.22534461  1.0
  Ti  Ti525  1  0.26737678  0.64579908  0.22534461  1.0
  Ti  Ti526  1  0.26737678  0.77079908  0.22534461  1.0
  Ti  Ti527  1  0.26737678  0.89579908  0.22534461  1.0
  Ti  Ti528  1  0.37848789  0.02079908  0.22534461  1.0
  Ti  Ti529  1  0.37848789  0.14579908  0.22534461  1.0
  Ti  Ti530  1  0.37848789  0.27079908  0.22534461  1.0
  Ti  Ti531  1  0.37848789  0.39579908  0.22534461  1.0
  Ti  Ti532  1  0.37848789  0.52079908  0.22534461  1.0
  Ti  Ti533  1  0.37848789  0.64579908  0.22534461  1.0
  Ti  Ti534  1  0.37848789  0.77079908  0.22534461  1.0
  Ti  Ti535  1  0.37848789  0.89579908  0.22534461  1.0
  Ti  Ti536  1  0.48959900  0.02079908  0.22534461  1.0
  Ti  Ti537  1  0.48959900  0.14579908  0.22534461  1.0
  Ti  Ti538  1  0.48959900  0.27079908  0.22534461  1.0
  Ti  Ti539  1  0.48959900  0.39579908  0.22534461  1.0
  Ti  Ti540  1  0.48959900  0.52079908  0.22534461  1.0
  Ti  Ti541  1  0.48959900  0.64579908  0.22534461  1.0
  Ti  Ti542  1  0.48959900  0.77079908  0.22534461  1.0
  Ti  Ti543  1  0.48959900  0.89579908  0.22534461  1.0
  Ti  Ti544  1  0.60071011  0.02079908  0.22534461  1.0
  Ti  Ti545  1  0.60071011  0.14579908  0.22534461  1.0
  Ti  Ti546  1  0.60071011  0.27079908  0.22534461  1.0
  Ti  Ti547  1  0.60071011  0.39579908  0.22534461  1.0
  Ti  Ti548  1  0.60071011  0.52079908  0.22534461  1.0
  Ti  Ti549  1  0.60071011  0.64579908  0.22534461  1.0
  Ti  Ti550  1  0.60071011  0.77079908  0.22534461  1.0
  Ti  Ti551  1  0.60071011  0.89579908  0.22534461  1.0
  Ti  Ti552  1  0.71182122  0.02079908  0.22534461  1.0
  Ti  Ti553  1  0.71182122  0.14579908  0.22534461  1.0
  Ti  Ti554  1  0.71182122  0.27079908  0.22534461  1.0
  Ti  Ti555  1  0.71182122  0.39579908  0.22534461  1.0
  Ti  Ti556  1  0.71182122  0.52079908  0.22534461  1.0
  Ti  Ti557  1  0.71182122  0.64579908  0.22534461  1.0
  Ti  Ti558  1  0.71182122  0.77079908  0.22534461  1.0
  Ti  Ti559  1  0.71182122  0.89579908  0.22534461  1.0
  Ti  Ti560  1  0.82293233  0.02079908  0.22534461  1.0
  Ti  Ti561  1  0.82293233  0.14579908  0.22534461  1.0
  Ti  Ti562  1  0.82293233  0.27079908  0.22534461  1.0
  Ti  Ti563  1  0.82293233  0.39579908  0.22534461  1.0
  Ti  Ti564  1  0.82293233  0.52079908  0.22534461  1.0
  Ti  Ti565  1  0.82293233  0.64579908  0.22534461  1.0
  Ti  Ti566  1  0.82293233  0.77079908  0.22534461  1.0
  Ti  Ti567  1  0.82293233  0.89579908  0.22534461  1.0
  Ti  Ti568  1  0.93404345  0.02079908  0.22534461  1.0
  Ti  Ti569  1  0.93404345  0.14579908  0.22534461  1.0
  Ti  Ti570  1  0.93404345  0.27079908  0.22534461  1.0
  Ti  Ti571  1  0.93404345  0.39579908  0.22534461  1.0
  Ti  Ti572  1  0.93404345  0.52079908  0.22534461  1.0
  Ti  Ti573  1  0.93404345  0.64579908  0.22534461  1.0
  Ti  Ti574  1  0.93404345  0.77079908  0.22534461  1.0
  Ti  Ti575  1  0.93404345  0.89579908  0.22534461  1.0
  Ti  Ti576  1  0.09806461  0.02079908  0.32058270  1.0
  Ti  Ti577  1  0.09806461  0.14579908  0.32058270  1.0
  Ti  Ti578  1  0.09806461  0.27079908  0.32058270  1.0
  Ti  Ti579  1  0.09806461  0.39579908  0.32058270  1.0
  Ti  Ti580  1  0.09806461  0.52079908  0.32058270  1.0
  Ti  Ti581  1  0.09806461  0.64579908  0.32058270  1.0
  Ti  Ti582  1  0.09806461  0.77079908  0.32058270  1.0
  Ti  Ti583  1  0.09806461  0.89579908  0.32058270  1.0
  Ti  Ti584  1  0.20917572  0.02079908  0.32058270  1.0
  Ti  Ti585  1  0.20917572  0.14579908  0.32058270  1.0
  Ti  Ti586  1  0.20917572  0.27079908  0.32058270  1.0
  Ti  Ti587  1  0.20917572  0.39579908  0.32058270  1.0
  Ti  Ti588  1  0.20917572  0.52079908  0.32058270  1.0
  Ti  Ti589  1  0.20917572  0.64579908  0.32058270  1.0
  Ti  Ti590  1  0.20917572  0.77079908  0.32058270  1.0
  Ti  Ti591  1  0.20917572  0.89579908  0.32058270  1.0
  Ti  Ti592  1  0.32028683  0.02079908  0.32058270  1.0
  Ti  Ti593  1  0.32028683  0.14579908  0.32058270  1.0
  Ti  Ti594  1  0.32028683  0.27079908  0.32058270  1.0
  Ti  Ti595  1  0.32028683  0.39579908  0.32058270  1.0
  Ti  Ti596  1  0.32028683  0.52079908  0.32058270  1.0
  Ti  Ti597  1  0.32028683  0.64579908  0.32058270  1.0
  Ti  Ti598  1  0.32028683  0.77079908  0.32058270  1.0
  Ti  Ti599  1  0.32028683  0.89579908  0.32058270  1.0
  Ti  Ti600  1  0.43139794  0.02079908  0.32058270  1.0
  Ti  Ti601  1  0.43139794  0.14579908  0.32058270  1.0
  Ti  Ti602  1  0.43139794  0.27079908  0.32058270  1.0
  Ti  Ti603  1  0.43139794  0.39579908  0.32058270  1.0
  Ti  Ti604  1  0.43139794  0.52079908  0.32058270  1.0
  Ti  Ti605  1  0.43139794  0.64579908  0.32058270  1.0
  Ti  Ti606  1  0.43139794  0.77079908  0.32058270  1.0
  Ti  Ti607  1  0.43139794  0.89579908  0.32058270  1.0
  Ti  Ti608  1  0.54250905  0.02079908  0.32058270  1.0
  Ti  Ti609  1  0.54250905  0.14579908  0.32058270  1.0
  Ti  Ti610  1  0.54250905  0.27079908  0.32058270  1.0
  Ti  Ti611  1  0.54250905  0.39579908  0.32058270  1.0
  Ti  Ti612  1  0.54250905  0.52079908  0.32058270  1.0
  Ti  Ti613  1  0.54250905  0.64579908  0.32058270  1.0
  Ti  Ti614  1  0.54250905  0.77079908  0.32058270  1.0
  Ti  Ti615  1  0.54250905  0.89579908  0.32058270  1.0
  Ti  Ti616  1  0.65362017  0.02079908  0.32058270  1.0
  Ti  Ti617  1  0.65362017  0.14579908  0.32058270  1.0
  Ti  Ti618  1  0.65362017  0.27079908  0.32058270  1.0
  Ti  Ti619  1  0.65362017  0.39579908  0.32058270  1.0
  Ti  Ti620  1  0.65362017  0.52079908  0.32058270  1.0
  Ti  Ti621  1  0.65362017  0.64579908  0.32058270  1.0
  Ti  Ti622  1  0.65362017  0.77079908  0.32058270  1.0
  Ti  Ti623  1  0.65362017  0.89579908  0.32058270  1.0
  Ti  Ti624  1  0.76473128  0.02079908  0.32058270  1.0
  Ti  Ti625  1  0.76473128  0.14579908  0.32058270  1.0
  Ti  Ti626  1  0.76473128  0.27079908  0.32058270  1.0
  Ti  Ti627  1  0.76473128  0.39579908  0.32058270  1.0
  Ti  Ti628  1  0.76473128  0.52079908  0.32058270  1.0
  Ti  Ti629  1  0.76473128  0.64579908  0.32058270  1.0
  Ti  Ti630  1  0.76473128  0.77079908  0.32058270  1.0
  Ti  Ti631  1  0.76473128  0.89579908  0.32058270  1.0
  Ti  Ti632  1  0.87584239  0.02079908  0.32058270  1.0
  Ti  Ti633  1  0.87584239  0.14579908  0.32058270  1.0
  Ti  Ti634  1  0.87584239  0.27079908  0.32058270  1.0
  Ti  Ti635  1  0.87584239  0.39579908  0.32058270  1.0
  Ti  Ti636  1  0.87584239  0.52079908  0.32058270  1.0
  Ti  Ti637  1  0.87584239  0.64579908  0.32058270  1.0
  Ti  Ti638  1  0.87584239  0.77079908  0.32058270  1.0
  Ti  Ti639  1  0.87584239  0.89579908  0.32058270  1.0
  Ti  Ti640  1  0.98695350  0.02079908  0.32058270  1.0
  Ti  Ti641  1  0.98695350  0.14579908  0.32058270  1.0
  Ti  Ti642  1  0.98695350  0.27079908  0.32058270  1.0
  Ti  Ti643  1  0.98695350  0.39579908  0.32058270  1.0
  Ti  Ti644  1  0.98695350  0.52079908  0.32058270  1.0
  Ti  Ti645  1  0.98695350  0.64579908  0.32058270  1.0
  Ti  Ti646  1  0.98695350  0.77079908  0.32058270  1.0
  Ti  Ti647  1  0.98695350  0.89579908  0.32058270  1.0
  Ti  Ti648  1  0.09770259  0.10420092  0.22703634  1.0
  Ti  Ti649  1  0.09770259  0.22920092  0.22703634  1.0
  Ti  Ti650  1  0.09770259  0.35420092  0.22703634  1.0
  Ti  Ti651  1  0.09770259  0.47920092  0.22703634  1.0
  Ti  Ti652  1  0.09770259  0.60420092  0.22703634  1.0
  Ti  Ti653  1  0.09770259  0.72920092  0.22703634  1.0
  Ti  Ti654  1  0.09770259  0.85420092  0.22703634  1.0
  Ti  Ti655  1  0.09770259  0.97920092  0.22703634  1.0
  Ti  Ti656  1  0.20881370  0.10420092  0.22703634  1.0
  Ti  Ti657  1  0.20881370  0.22920092  0.22703634  1.0
  Ti  Ti658  1  0.20881370  0.35420092  0.22703634  1.0
  Ti  Ti659  1  0.20881370  0.47920092  0.22703634  1.0
  Ti  Ti660  1  0.20881370  0.60420092  0.22703634  1.0
  Ti  Ti661  1  0.20881370  0.72920092  0.22703634  1.0
  Ti  Ti662  1  0.20881370  0.85420092  0.22703634  1.0
  Ti  Ti663  1  0.20881370  0.97920092  0.22703634  1.0
  Ti  Ti664  1  0.31992481  0.10420092  0.22703634  1.0
  Ti  Ti665  1  0.31992481  0.22920092  0.22703634  1.0
  Ti  Ti666  1  0.31992481  0.35420092  0.22703634  1.0
  Ti  Ti667  1  0.31992481  0.47920092  0.22703634  1.0
  Ti  Ti668  1  0.31992481  0.60420092  0.22703634  1.0
  Ti  Ti669  1  0.31992481  0.72920092  0.22703634  1.0
  Ti  Ti670  1  0.31992481  0.85420092  0.22703634  1.0
  Ti  Ti671  1  0.31992481  0.97920092  0.22703634  1.0
  Ti  Ti672  1  0.43103592  0.10420092  0.22703634  1.0
  Ti  Ti673  1  0.43103592  0.22920092  0.22703634  1.0
  Ti  Ti674  1  0.43103592  0.35420092  0.22703634  1.0
  Ti  Ti675  1  0.43103592  0.47920092  0.22703634  1.0
  Ti  Ti676  1  0.43103592  0.60420092  0.22703634  1.0
  Ti  Ti677  1  0.43103592  0.72920092  0.22703634  1.0
  Ti  Ti678  1  0.43103592  0.85420092  0.22703634  1.0
  Ti  Ti679  1  0.43103592  0.97920092  0.22703634  1.0
  Ti  Ti680  1  0.54214703  0.10420092  0.22703634  1.0
  Ti  Ti681  1  0.54214703  0.22920092  0.22703634  1.0
  Ti  Ti682  1  0.54214703  0.35420092  0.22703634  1.0
  Ti  Ti683  1  0.54214703  0.47920092  0.22703634  1.0
  Ti  Ti684  1  0.54214703  0.60420092  0.22703634  1.0
  Ti  Ti685  1  0.54214703  0.72920092  0.22703634  1.0
  Ti  Ti686  1  0.54214703  0.85420092  0.22703634  1.0
  Ti  Ti687  1  0.54214703  0.97920092  0.22703634  1.0
  Ti  Ti688  1  0.65325814  0.10420092  0.22703634  1.0
  Ti  Ti689  1  0.65325814  0.22920092  0.22703634  1.0
  Ti  Ti690  1  0.65325814  0.35420092  0.22703634  1.0
  Ti  Ti691  1  0.65325814  0.47920092  0.22703634  1.0
  Ti  Ti692  1  0.65325814  0.60420092  0.22703634  1.0
  Ti  Ti693  1  0.65325814  0.72920092  0.22703634  1.0
  Ti  Ti694  1  0.65325814  0.85420092  0.22703634  1.0
  Ti  Ti695  1  0.65325814  0.97920092  0.22703634  1.0
  Ti  Ti696  1  0.76436925  0.10420092  0.22703634  1.0
  Ti  Ti697  1  0.76436925  0.22920092  0.22703634  1.0
  Ti  Ti698  1  0.76436925  0.35420092  0.22703634  1.0
  Ti  Ti699  1  0.76436925  0.47920092  0.22703634  1.0
  Ti  Ti700  1  0.76436925  0.60420092  0.22703634  1.0
  Ti  Ti701  1  0.76436925  0.72920092  0.22703634  1.0
  Ti  Ti702  1  0.76436925  0.85420092  0.22703634  1.0
  Ti  Ti703  1  0.76436925  0.97920092  0.22703634  1.0
  Ti  Ti704  1  0.87548036  0.10420092  0.22703634  1.0
  Ti  Ti705  1  0.87548036  0.22920092  0.22703634  1.0
  Ti  Ti706  1  0.87548036  0.35420092  0.22703634  1.0
  Ti  Ti707  1  0.87548036  0.47920092  0.22703634  1.0
  Ti  Ti708  1  0.87548036  0.60420092  0.22703634  1.0
  Ti  Ti709  1  0.87548036  0.72920092  0.22703634  1.0
  Ti  Ti710  1  0.87548036  0.85420092  0.22703634  1.0
  Ti  Ti711  1  0.87548036  0.97920092  0.22703634  1.0
  Ti  Ti712  1  0.98659148  0.10420092  0.22703634  1.0
  Ti  Ti713  1  0.98659148  0.22920092  0.22703634  1.0
  Ti  Ti714  1  0.98659148  0.35420092  0.22703634  1.0
  Ti  Ti715  1  0.98659148  0.47920092  0.22703634  1.0
  Ti  Ti716  1  0.98659148  0.60420092  0.22703634  1.0
  Ti  Ti717  1  0.98659148  0.72920092  0.22703634  1.0
  Ti  Ti718  1  0.98659148  0.85420092  0.22703634  1.0
  Ti  Ti719  1  0.98659148  0.97920092  0.22703634  1.0
  Ti  Ti720  1  0.03950153  0.10420092  0.32227444  1.0
  Ti  Ti721  1  0.03950153  0.22920092  0.32227444  1.0
  Ti  Ti722  1  0.03950153  0.35420092  0.32227444  1.0
  Ti  Ti723  1  0.03950153  0.47920092  0.32227444  1.0
  Ti  Ti724  1  0.03950153  0.60420092  0.32227444  1.0
  Ti  Ti725  1  0.03950153  0.72920092  0.32227444  1.0
  Ti  Ti726  1  0.03950153  0.85420092  0.32227444  1.0
  Ti  Ti727  1  0.03950153  0.97920092  0.32227444  1.0
  Ti  Ti728  1  0.15061264  0.10420092  0.32227444  1.0
  Ti  Ti729  1  0.15061264  0.22920092  0.32227444  1.0
  Ti  Ti730  1  0.15061264  0.35420092  0.32227444  1.0
  Ti  Ti731  1  0.15061264  0.47920092  0.32227444  1.0
  Ti  Ti732  1  0.15061264  0.60420092  0.32227444  1.0
  Ti  Ti733  1  0.15061264  0.72920092  0.32227444  1.0
  Ti  Ti734  1  0.15061264  0.85420092  0.32227444  1.0
  Ti  Ti735  1  0.15061264  0.97920092  0.32227444  1.0
  Ti  Ti736  1  0.26172375  0.10420092  0.32227444  1.0
  Ti  Ti737  1  0.26172375  0.22920092  0.32227444  1.0
  Ti  Ti738  1  0.26172375  0.35420092  0.32227444  1.0
  Ti  Ti739  1  0.26172375  0.47920092  0.32227444  1.0
  Ti  Ti740  1  0.26172375  0.60420092  0.32227444  1.0
  Ti  Ti741  1  0.26172375  0.72920092  0.32227444  1.0
  Ti  Ti742  1  0.26172375  0.85420092  0.32227444  1.0
  Ti  Ti743  1  0.26172375  0.97920092  0.32227444  1.0
  Ti  Ti744  1  0.37283486  0.10420092  0.32227444  1.0
  Ti  Ti745  1  0.37283486  0.22920092  0.32227444  1.0
  Ti  Ti746  1  0.37283486  0.35420092  0.32227444  1.0
  Ti  Ti747  1  0.37283486  0.47920092  0.32227444  1.0
  Ti  Ti748  1  0.37283486  0.60420092  0.32227444  1.0
  Ti  Ti749  1  0.37283486  0.72920092  0.32227444  1.0
  Ti  Ti750  1  0.37283486  0.85420092  0.32227444  1.0
  Ti  Ti751  1  0.37283486  0.97920092  0.32227444  1.0
  Ti  Ti752  1  0.48394597  0.10420092  0.32227444  1.0
  Ti  Ti753  1  0.48394597  0.22920092  0.32227444  1.0
  Ti  Ti754  1  0.48394597  0.35420092  0.32227444  1.0
  Ti  Ti755  1  0.48394597  0.47920092  0.32227444  1.0
  Ti  Ti756  1  0.48394597  0.60420092  0.32227444  1.0
  Ti  Ti757  1  0.48394597  0.72920092  0.32227444  1.0
  Ti  Ti758  1  0.48394597  0.85420092  0.32227444  1.0
  Ti  Ti759  1  0.48394597  0.97920092  0.32227444  1.0
  Ti  Ti760  1  0.59505708  0.10420092  0.32227444  1.0
  Ti  Ti761  1  0.59505708  0.22920092  0.32227444  1.0
  Ti  Ti762  1  0.59505708  0.35420092  0.32227444  1.0
  Ti  Ti763  1  0.59505708  0.47920092  0.32227444  1.0
  Ti  Ti764  1  0.59505708  0.60420092  0.32227444  1.0
  Ti  Ti765  1  0.59505708  0.72920092  0.32227444  1.0
  Ti  Ti766  1  0.59505708  0.85420092  0.32227444  1.0
  Ti  Ti767  1  0.59505708  0.97920092  0.32227444  1.0
  Ti  Ti768  1  0.70616819  0.10420092  0.32227444  1.0
  Ti  Ti769  1  0.70616819  0.22920092  0.32227444  1.0
  Ti  Ti770  1  0.70616819  0.35420092  0.32227444  1.0
  Ti  Ti771  1  0.70616819  0.47920092  0.32227444  1.0
  Ti  Ti772  1  0.70616819  0.60420092  0.32227444  1.0
  Ti  Ti773  1  0.70616819  0.72920092  0.32227444  1.0
  Ti  Ti774  1  0.70616819  0.85420092  0.32227444  1.0
  Ti  Ti775  1  0.70616819  0.97920092  0.32227444  1.0
  Ti  Ti776  1  0.81727931  0.10420092  0.32227444  1.0
  Ti  Ti777  1  0.81727931  0.22920092  0.32227444  1.0
  Ti  Ti778  1  0.81727931  0.35420092  0.32227444  1.0
  Ti  Ti779  1  0.81727931  0.47920092  0.32227444  1.0
  Ti  Ti780  1  0.81727931  0.60420092  0.32227444  1.0
  Ti  Ti781  1  0.81727931  0.72920092  0.32227444  1.0
  Ti  Ti782  1  0.81727931  0.85420092  0.32227444  1.0
  Ti  Ti783  1  0.81727931  0.97920092  0.32227444  1.0
  Ti  Ti784  1  0.92839042  0.10420092  0.32227444  1.0
  Ti  Ti785  1  0.92839042  0.22920092  0.32227444  1.0
  Ti  Ti786  1  0.92839042  0.35420092  0.32227444  1.0
  Ti  Ti787  1  0.92839042  0.47920092  0.32227444  1.0
  Ti  Ti788  1  0.92839042  0.60420092  0.32227444  1.0
  Ti  Ti789  1  0.92839042  0.72920092  0.32227444  1.0
  Ti  Ti790  1  0.92839042  0.85420092  0.32227444  1.0
  Ti  Ti791  1  0.92839042  0.97920092  0.32227444  1.0
  Ti  Ti792  1  0.01304650  0.10420092  0.27465539  1.0
  Ti  Ti793  1  0.01304650  0.22920092  0.27465539  1.0
  Ti  Ti794  1  0.01304650  0.35420092  0.27465539  1.0
  Ti  Ti795  1  0.01304650  0.47920092  0.27465539  1.0
  Ti  Ti796  1  0.01304650  0.60420092  0.27465539  1.0
  Ti  Ti797  1  0.01304650  0.72920092  0.27465539  1.0
  Ti  Ti798  1  0.01304650  0.85420092  0.27465539  1.0
  Ti  Ti799  1  0.01304650  0.97920092  0.27465539  1.0
  Ti  Ti800  1  0.12415761  0.10420092  0.27465539  1.0
  Ti  Ti801  1  0.12415761  0.22920092  0.27465539  1.0
  Ti  Ti802  1  0.12415761  0.35420092  0.27465539  1.0
  Ti  Ti803  1  0.12415761  0.47920092  0.27465539  1.0
  Ti  Ti804  1  0.12415761  0.60420092  0.27465539  1.0
  Ti  Ti805  1  0.12415761  0.72920092  0.27465539  1.0
  Ti  Ti806  1  0.12415761  0.85420092  0.27465539  1.0
  Ti  Ti807  1  0.12415761  0.97920092  0.27465539  1.0
  Ti  Ti808  1  0.23526872  0.10420092  0.27465539  1.0
  Ti  Ti809  1  0.23526872  0.22920092  0.27465539  1.0
  Ti  Ti810  1  0.23526872  0.35420092  0.27465539  1.0
  Ti  Ti811  1  0.23526872  0.47920092  0.27465539  1.0
  Ti  Ti812  1  0.23526872  0.60420092  0.27465539  1.0
  Ti  Ti813  1  0.23526872  0.72920092  0.27465539  1.0
  Ti  Ti814  1  0.23526872  0.85420092  0.27465539  1.0
  Ti  Ti815  1  0.23526872  0.97920092  0.27465539  1.0
  Ti  Ti816  1  0.34637983  0.10420092  0.27465539  1.0
  Ti  Ti817  1  0.34637983  0.22920092  0.27465539  1.0
  Ti  Ti818  1  0.34637983  0.35420092  0.27465539  1.0
  Ti  Ti819  1  0.34637983  0.47920092  0.27465539  1.0
  Ti  Ti820  1  0.34637983  0.60420092  0.27465539  1.0
  Ti  Ti821  1  0.34637983  0.72920092  0.27465539  1.0
  Ti  Ti822  1  0.34637983  0.85420092  0.27465539  1.0
  Ti  Ti823  1  0.34637983  0.97920092  0.27465539  1.0
  Ti  Ti824  1  0.45749095  0.10420092  0.27465539  1.0
  Ti  Ti825  1  0.45749095  0.22920092  0.27465539  1.0
  Ti  Ti826  1  0.45749095  0.35420092  0.27465539  1.0
  Ti  Ti827  1  0.45749095  0.47920092  0.27465539  1.0
  Ti  Ti828  1  0.45749095  0.60420092  0.27465539  1.0
  Ti  Ti829  1  0.45749095  0.72920092  0.27465539  1.0
  Ti  Ti830  1  0.45749095  0.85420092  0.27465539  1.0
  Ti  Ti831  1  0.45749095  0.97920092  0.27465539  1.0
  Ti  Ti832  1  0.56860206  0.10420092  0.27465539  1.0
  Ti  Ti833  1  0.56860206  0.22920092  0.27465539  1.0
  Ti  Ti834  1  0.56860206  0.35420092  0.27465539  1.0
  Ti  Ti835  1  0.56860206  0.47920092  0.27465539  1.0
  Ti  Ti836  1  0.56860206  0.60420092  0.27465539  1.0
  Ti  Ti837  1  0.56860206  0.72920092  0.27465539  1.0
  Ti  Ti838  1  0.56860206  0.85420092  0.27465539  1.0
  Ti  Ti839  1  0.56860206  0.97920092  0.27465539  1.0
  Ti  Ti840  1  0.67971317  0.10420092  0.27465539  1.0
  Ti  Ti841  1  0.67971317  0.22920092  0.27465539  1.0
  Ti  Ti842  1  0.67971317  0.35420092  0.27465539  1.0
  Ti  Ti843  1  0.67971317  0.47920092  0.27465539  1.0
  Ti  Ti844  1  0.67971317  0.60420092  0.27465539  1.0
  Ti  Ti845  1  0.67971317  0.72920092  0.27465539  1.0
  Ti  Ti846  1  0.67971317  0.85420092  0.27465539  1.0
  Ti  Ti847  1  0.67971317  0.97920092  0.27465539  1.0
  Ti  Ti848  1  0.79082428  0.10420092  0.27465539  1.0
  Ti  Ti849  1  0.79082428  0.22920092  0.27465539  1.0
  Ti  Ti850  1  0.79082428  0.35420092  0.27465539  1.0
  Ti  Ti851  1  0.79082428  0.47920092  0.27465539  1.0
  Ti  Ti852  1  0.79082428  0.60420092  0.27465539  1.0
  Ti  Ti853  1  0.79082428  0.72920092  0.27465539  1.0
  Ti  Ti854  1  0.79082428  0.85420092  0.27465539  1.0
  Ti  Ti855  1  0.79082428  0.97920092  0.27465539  1.0
  Ti  Ti856  1  0.90193539  0.10420092  0.27465539  1.0
  Ti  Ti857  1  0.90193539  0.22920092  0.27465539  1.0
  Ti  Ti858  1  0.90193539  0.35420092  0.27465539  1.0
  Ti  Ti859  1  0.90193539  0.47920092  0.27465539  1.0
  Ti  Ti860  1  0.90193539  0.60420092  0.27465539  1.0
  Ti  Ti861  1  0.90193539  0.72920092  0.27465539  1.0
  Ti  Ti862  1  0.90193539  0.85420092  0.27465539  1.0
  Ti  Ti863  1  0.90193539  0.97920092  0.27465539  1.0
  Ti  Ti864  1  0.08219159  0.04170092  0.39201128  1.0
  Ti  Ti865  1  0.08219159  0.16670092  0.39201128  1.0
  Ti  Ti866  1  0.08219159  0.29170092  0.39201128  1.0
  Ti  Ti867  1  0.08219159  0.41670092  0.39201128  1.0
  Ti  Ti868  1  0.08219159  0.54170092  0.39201128  1.0
  Ti  Ti869  1  0.08219159  0.66670092  0.39201128  1.0
  Ti  Ti870  1  0.08219159  0.79170092  0.39201128  1.0
  Ti  Ti871  1  0.08219159  0.91670092  0.39201128  1.0
  Ti  Ti872  1  0.19330270  0.04170092  0.39201128  1.0
  Ti  Ti873  1  0.19330270  0.16670092  0.39201128  1.0
  Ti  Ti874  1  0.19330270  0.29170092  0.39201128  1.0
  Ti  Ti875  1  0.19330270  0.41670092  0.39201128  1.0
  Ti  Ti876  1  0.19330270  0.54170092  0.39201128  1.0
  Ti  Ti877  1  0.19330270  0.66670092  0.39201128  1.0
  Ti  Ti878  1  0.19330270  0.79170092  0.39201128  1.0
  Ti  Ti879  1  0.19330270  0.91670092  0.39201128  1.0
  Ti  Ti880  1  0.30441382  0.04170092  0.39201128  1.0
  Ti  Ti881  1  0.30441382  0.16670092  0.39201128  1.0
  Ti  Ti882  1  0.30441382  0.29170092  0.39201128  1.0
  Ti  Ti883  1  0.30441382  0.41670092  0.39201128  1.0
  Ti  Ti884  1  0.30441382  0.54170092  0.39201128  1.0
  Ti  Ti885  1  0.30441382  0.66670092  0.39201128  1.0
  Ti  Ti886  1  0.30441382  0.79170092  0.39201128  1.0
  Ti  Ti887  1  0.30441382  0.91670092  0.39201128  1.0
  Ti  Ti888  1  0.41552493  0.04170092  0.39201128  1.0
  Ti  Ti889  1  0.41552493  0.16670092  0.39201128  1.0
  Ti  Ti890  1  0.41552493  0.29170092  0.39201128  1.0
  Ti  Ti891  1  0.41552493  0.41670092  0.39201128  1.0
  Ti  Ti892  1  0.41552493  0.54170092  0.39201128  1.0
  Ti  Ti893  1  0.41552493  0.66670092  0.39201128  1.0
  Ti  Ti894  1  0.41552493  0.79170092  0.39201128  1.0
  Ti  Ti895  1  0.41552493  0.91670092  0.39201128  1.0
  Ti  Ti896  1  0.52663604  0.04170092  0.39201128  1.0
  Ti  Ti897  1  0.52663604  0.16670092  0.39201128  1.0
  Ti  Ti898  1  0.52663604  0.29170092  0.39201128  1.0
  Ti  Ti899  1  0.52663604  0.41670092  0.39201128  1.0
  Ti  Ti900  1  0.52663604  0.54170092  0.39201128  1.0
  Ti  Ti901  1  0.52663604  0.66670092  0.39201128  1.0
  Ti  Ti902  1  0.52663604  0.79170092  0.39201128  1.0
  Ti  Ti903  1  0.52663604  0.91670092  0.39201128  1.0
  Ti  Ti904  1  0.63774715  0.04170092  0.39201128  1.0
  Ti  Ti905  1  0.63774715  0.16670092  0.39201128  1.0
  Ti  Ti906  1  0.63774715  0.29170092  0.39201128  1.0
  Ti  Ti907  1  0.63774715  0.41670092  0.39201128  1.0
  Ti  Ti908  1  0.63774715  0.54170092  0.39201128  1.0
  Ti  Ti909  1  0.63774715  0.66670092  0.39201128  1.0
  Ti  Ti910  1  0.63774715  0.79170092  0.39201128  1.0
  Ti  Ti911  1  0.63774715  0.91670092  0.39201128  1.0
  Ti  Ti912  1  0.74885826  0.04170092  0.39201128  1.0
  Ti  Ti913  1  0.74885826  0.16670092  0.39201128  1.0
  Ti  Ti914  1  0.74885826  0.29170092  0.39201128  1.0
  Ti  Ti915  1  0.74885826  0.41670092  0.39201128  1.0
  Ti  Ti916  1  0.74885826  0.54170092  0.39201128  1.0
  Ti  Ti917  1  0.74885826  0.66670092  0.39201128  1.0
  Ti  Ti918  1  0.74885826  0.79170092  0.39201128  1.0
  Ti  Ti919  1  0.74885826  0.91670092  0.39201128  1.0
  Ti  Ti920  1  0.85996937  0.04170092  0.39201128  1.0
  Ti  Ti921  1  0.85996937  0.16670092  0.39201128  1.0
  Ti  Ti922  1  0.85996937  0.29170092  0.39201128  1.0
  Ti  Ti923  1  0.85996937  0.41670092  0.39201128  1.0
  Ti  Ti924  1  0.85996937  0.54170092  0.39201128  1.0
  Ti  Ti925  1  0.85996937  0.66670092  0.39201128  1.0
  Ti  Ti926  1  0.85996937  0.79170092  0.39201128  1.0
  Ti  Ti927  1  0.85996937  0.91670092  0.39201128  1.0
  Ti  Ti928  1  0.97108048  0.04170092  0.39201128  1.0
  Ti  Ti929  1  0.97108048  0.16670092  0.39201128  1.0
  Ti  Ti930  1  0.97108048  0.29170092  0.39201128  1.0
  Ti  Ti931  1  0.97108048  0.41670092  0.39201128  1.0
  Ti  Ti932  1  0.97108048  0.54170092  0.39201128  1.0
  Ti  Ti933  1  0.97108048  0.66670092  0.39201128  1.0
  Ti  Ti934  1  0.97108048  0.79170092  0.39201128  1.0
  Ti  Ti935  1  0.97108048  0.91670092  0.39201128  1.0
  Ti  Ti936  1  0.02399054  0.04170092  0.48724937  1.0
  Ti  Ti937  1  0.02399054  0.16670092  0.48724937  1.0
  Ti  Ti938  1  0.02399054  0.29170092  0.48724937  1.0
  Ti  Ti939  1  0.02399054  0.41670092  0.48724937  1.0
  Ti  Ti940  1  0.02399054  0.54170092  0.48724937  1.0
  Ti  Ti941  1  0.02399054  0.66670092  0.48724937  1.0
  Ti  Ti942  1  0.02399054  0.79170092  0.48724937  1.0
  Ti  Ti943  1  0.02399054  0.91670092  0.48724937  1.0
  Ti  Ti944  1  0.13510165  0.04170092  0.48724937  1.0
  Ti  Ti945  1  0.13510165  0.16670092  0.48724937  1.0
  Ti  Ti946  1  0.13510165  0.29170092  0.48724937  1.0
  Ti  Ti947  1  0.13510165  0.41670092  0.48724937  1.0
  Ti  Ti948  1  0.13510165  0.54170092  0.48724937  1.0
  Ti  Ti949  1  0.13510165  0.66670092  0.48724937  1.0
  Ti  Ti950  1  0.13510165  0.79170092  0.48724937  1.0
  Ti  Ti951  1  0.13510165  0.91670092  0.48724937  1.0
  Ti  Ti952  1  0.24621276  0.04170092  0.48724937  1.0
  Ti  Ti953  1  0.24621276  0.16670092  0.48724937  1.0
  Ti  Ti954  1  0.24621276  0.29170092  0.48724937  1.0
  Ti  Ti955  1  0.24621276  0.41670092  0.48724937  1.0
  Ti  Ti956  1  0.24621276  0.54170092  0.48724937  1.0
  Ti  Ti957  1  0.24621276  0.66670092  0.48724937  1.0
  Ti  Ti958  1  0.24621276  0.79170092  0.48724937  1.0
  Ti  Ti959  1  0.24621276  0.91670092  0.48724937  1.0
  Ti  Ti960  1  0.35732387  0.04170092  0.48724937  1.0
  Ti  Ti961  1  0.35732387  0.16670092  0.48724937  1.0
  Ti  Ti962  1  0.35732387  0.29170092  0.48724937  1.0
  Ti  Ti963  1  0.35732387  0.41670092  0.48724937  1.0
  Ti  Ti964  1  0.35732387  0.54170092  0.48724937  1.0
  Ti  Ti965  1  0.35732387  0.66670092  0.48724937  1.0
  Ti  Ti966  1  0.35732387  0.79170092  0.48724937  1.0
  Ti  Ti967  1  0.35732387  0.91670092  0.48724937  1.0
  Ti  Ti968  1  0.46843498  0.04170092  0.48724937  1.0
  Ti  Ti969  1  0.46843498  0.16670092  0.48724937  1.0
  Ti  Ti970  1  0.46843498  0.29170092  0.48724937  1.0
  Ti  Ti971  1  0.46843498  0.41670092  0.48724937  1.0
  Ti  Ti972  1  0.46843498  0.54170092  0.48724937  1.0
  Ti  Ti973  1  0.46843498  0.66670092  0.48724937  1.0
  Ti  Ti974  1  0.46843498  0.79170092  0.48724937  1.0
  Ti  Ti975  1  0.46843498  0.91670092  0.48724937  1.0
  Ti  Ti976  1  0.57954609  0.04170092  0.48724937  1.0
  Ti  Ti977  1  0.57954609  0.16670092  0.48724937  1.0
  Ti  Ti978  1  0.57954609  0.29170092  0.48724937  1.0
  Ti  Ti979  1  0.57954609  0.41670092  0.48724937  1.0
  Ti  Ti980  1  0.57954609  0.54170092  0.48724937  1.0
  Ti  Ti981  1  0.57954609  0.66670092  0.48724937  1.0
  Ti  Ti982  1  0.57954609  0.79170092  0.48724937  1.0
  Ti  Ti983  1  0.57954609  0.91670092  0.48724937  1.0
  Ti  Ti984  1  0.69065720  0.04170092  0.48724937  1.0
  Ti  Ti985  1  0.69065720  0.16670092  0.48724937  1.0
  Ti  Ti986  1  0.69065720  0.29170092  0.48724937  1.0
  Ti  Ti987  1  0.69065720  0.41670092  0.48724937  1.0
  Ti  Ti988  1  0.69065720  0.54170092  0.48724937  1.0
  Ti  Ti989  1  0.69065720  0.66670092  0.48724937  1.0
  Ti  Ti990  1  0.69065720  0.79170092  0.48724937  1.0
  Ti  Ti991  1  0.69065720  0.91670092  0.48724937  1.0
  Ti  Ti992  1  0.80176831  0.04170092  0.48724937  1.0
  Ti  Ti993  1  0.80176831  0.16670092  0.48724937  1.0
  Ti  Ti994  1  0.80176831  0.29170092  0.48724937  1.0
  Ti  Ti995  1  0.80176831  0.41670092  0.48724937  1.0
  Ti  Ti996  1  0.80176831  0.54170092  0.48724937  1.0
  Ti  Ti997  1  0.80176831  0.66670092  0.48724937  1.0
  Ti  Ti998  1  0.80176831  0.79170092  0.48724937  1.0
  Ti  Ti999  1  0.80176831  0.91670092  0.48724937  1.0
  Ti  Ti1000  1  0.91287942  0.04170092  0.48724937  1.0
  Ti  Ti1001  1  0.91287942  0.16670092  0.48724937  1.0
  Ti  Ti1002  1  0.91287942  0.29170092  0.48724937  1.0
  Ti  Ti1003  1  0.91287942  0.41670092  0.48724937  1.0
  Ti  Ti1004  1  0.91287942  0.54170092  0.48724937  1.0
  Ti  Ti1005  1  0.91287942  0.66670092  0.48724937  1.0
  Ti  Ti1006  1  0.91287942  0.79170092  0.48724937  1.0
  Ti  Ti1007  1  0.91287942  0.91670092  0.48724937  1.0
  Ti  Ti1008  1  0.10864662  0.04170092  0.43963032  1.0
  Ti  Ti1009  1  0.10864662  0.16670092  0.43963032  1.0
  Ti  Ti1010  1  0.10864662  0.29170092  0.43963032  1.0
  Ti  Ti1011  1  0.10864662  0.41670092  0.43963032  1.0
  Ti  Ti1012  1  0.10864662  0.54170092  0.43963032  1.0
  Ti  Ti1013  1  0.10864662  0.66670092  0.43963032  1.0
  Ti  Ti1014  1  0.10864662  0.79170092  0.43963032  1.0
  Ti  Ti1015  1  0.10864662  0.91670092  0.43963032  1.0
  Ti  Ti1016  1  0.21975773  0.04170092  0.43963032  1.0
  Ti  Ti1017  1  0.21975773  0.16670092  0.43963032  1.0
  Ti  Ti1018  1  0.21975773  0.29170092  0.43963032  1.0
  Ti  Ti1019  1  0.21975773  0.41670092  0.43963032  1.0
  Ti  Ti1020  1  0.21975773  0.54170092  0.43963032  1.0
  Ti  Ti1021  1  0.21975773  0.66670092  0.43963032  1.0
  Ti  Ti1022  1  0.21975773  0.79170092  0.43963032  1.0
  Ti  Ti1023  1  0.21975773  0.91670092  0.43963032  1.0
  Ti  Ti1024  1  0.33086884  0.04170092  0.43963032  1.0
  Ti  Ti1025  1  0.33086884  0.16670092  0.43963032  1.0
  Ti  Ti1026  1  0.33086884  0.29170092  0.43963032  1.0
  Ti  Ti1027  1  0.33086884  0.41670092  0.43963032  1.0
  Ti  Ti1028  1  0.33086884  0.54170092  0.43963032  1.0
  Ti  Ti1029  1  0.33086884  0.66670092  0.43963032  1.0
  Ti  Ti1030  1  0.33086884  0.79170092  0.43963032  1.0
  Ti  Ti1031  1  0.33086884  0.91670092  0.43963032  1.0
  Ti  Ti1032  1  0.44197995  0.04170092  0.43963032  1.0
  Ti  Ti1033  1  0.44197995  0.16670092  0.43963032  1.0
  Ti  Ti1034  1  0.44197995  0.29170092  0.43963032  1.0
  Ti  Ti1035  1  0.44197995  0.41670092  0.43963032  1.0
  Ti  Ti1036  1  0.44197995  0.54170092  0.43963032  1.0
  Ti  Ti1037  1  0.44197995  0.66670092  0.43963032  1.0
  Ti  Ti1038  1  0.44197995  0.79170092  0.43963032  1.0
  Ti  Ti1039  1  0.44197995  0.91670092  0.43963032  1.0
  Ti  Ti1040  1  0.55309106  0.04170092  0.43963032  1.0
  Ti  Ti1041  1  0.55309106  0.16670092  0.43963032  1.0
  Ti  Ti1042  1  0.55309106  0.29170092  0.43963032  1.0
  Ti  Ti1043  1  0.55309106  0.41670092  0.43963032  1.0
  Ti  Ti1044  1  0.55309106  0.54170092  0.43963032  1.0
  Ti  Ti1045  1  0.55309106  0.66670092  0.43963032  1.0
  Ti  Ti1046  1  0.55309106  0.79170092  0.43963032  1.0
  Ti  Ti1047  1  0.55309106  0.91670092  0.43963032  1.0
  Ti  Ti1048  1  0.66420218  0.04170092  0.43963032  1.0
  Ti  Ti1049  1  0.66420218  0.16670092  0.43963032  1.0
  Ti  Ti1050  1  0.66420218  0.29170092  0.43963032  1.0
  Ti  Ti1051  1  0.66420218  0.41670092  0.43963032  1.0
  Ti  Ti1052  1  0.66420218  0.54170092  0.43963032  1.0
  Ti  Ti1053  1  0.66420218  0.66670092  0.43963032  1.0
  Ti  Ti1054  1  0.66420218  0.79170092  0.43963032  1.0
  Ti  Ti1055  1  0.66420218  0.91670092  0.43963032  1.0
  Ti  Ti1056  1  0.77531329  0.04170092  0.43963032  1.0
  Ti  Ti1057  1  0.77531329  0.16670092  0.43963032  1.0
  Ti  Ti1058  1  0.77531329  0.29170092  0.43963032  1.0
  Ti  Ti1059  1  0.77531329  0.41670092  0.43963032  1.0
  Ti  Ti1060  1  0.77531329  0.54170092  0.43963032  1.0
  Ti  Ti1061  1  0.77531329  0.66670092  0.43963032  1.0
  Ti  Ti1062  1  0.77531329  0.79170092  0.43963032  1.0
  Ti  Ti1063  1  0.77531329  0.91670092  0.43963032  1.0
  Ti  Ti1064  1  0.88642440  0.04170092  0.43963032  1.0
  Ti  Ti1065  1  0.88642440  0.16670092  0.43963032  1.0
  Ti  Ti1066  1  0.88642440  0.29170092  0.43963032  1.0
  Ti  Ti1067  1  0.88642440  0.41670092  0.43963032  1.0
  Ti  Ti1068  1  0.88642440  0.54170092  0.43963032  1.0
  Ti  Ti1069  1  0.88642440  0.66670092  0.43963032  1.0
  Ti  Ti1070  1  0.88642440  0.79170092  0.43963032  1.0
  Ti  Ti1071  1  0.88642440  0.91670092  0.43963032  1.0
  Ti  Ti1072  1  0.99753551  0.04170092  0.43963032  1.0
  Ti  Ti1073  1  0.99753551  0.16670092  0.43963032  1.0
  Ti  Ti1074  1  0.99753551  0.29170092  0.43963032  1.0
  Ti  Ti1075  1  0.99753551  0.41670092  0.43963032  1.0
  Ti  Ti1076  1  0.99753551  0.54170092  0.43963032  1.0
  Ti  Ti1077  1  0.99753551  0.66670092  0.43963032  1.0
  Ti  Ti1078  1  0.99753551  0.79170092  0.43963032  1.0
  Ti  Ti1079  1  0.99753551  0.91670092  0.43963032  1.0
  Ti  Ti1080  1  0.02362851  0.08329908  0.39370301  1.0
  Ti  Ti1081  1  0.02362851  0.20829908  0.39370301  1.0
  Ti  Ti1082  1  0.02362851  0.33329908  0.39370301  1.0
  Ti  Ti1083  1  0.02362851  0.45829908  0.39370301  1.0
  Ti  Ti1084  1  0.02362851  0.58329908  0.39370301  1.0
  Ti  Ti1085  1  0.02362851  0.70829908  0.39370301  1.0
  Ti  Ti1086  1  0.02362851  0.83329908  0.39370301  1.0
  Ti  Ti1087  1  0.02362851  0.95829908  0.39370301  1.0
  Ti  Ti1088  1  0.13473962  0.08329908  0.39370301  1.0
  Ti  Ti1089  1  0.13473962  0.20829908  0.39370301  1.0
  Ti  Ti1090  1  0.13473962  0.33329908  0.39370301  1.0
  Ti  Ti1091  1  0.13473962  0.45829908  0.39370301  1.0
  Ti  Ti1092  1  0.13473962  0.58329908  0.39370301  1.0
  Ti  Ti1093  1  0.13473962  0.70829908  0.39370301  1.0
  Ti  Ti1094  1  0.13473962  0.83329908  0.39370301  1.0
  Ti  Ti1095  1  0.13473962  0.95829908  0.39370301  1.0
  Ti  Ti1096  1  0.24585073  0.08329908  0.39370301  1.0
  Ti  Ti1097  1  0.24585073  0.20829908  0.39370301  1.0
  Ti  Ti1098  1  0.24585073  0.33329908  0.39370301  1.0
  Ti  Ti1099  1  0.24585073  0.45829908  0.39370301  1.0
  Ti  Ti1100  1  0.24585073  0.58329908  0.39370301  1.0
  Ti  Ti1101  1  0.24585073  0.70829908  0.39370301  1.0
  Ti  Ti1102  1  0.24585073  0.83329908  0.39370301  1.0
  Ti  Ti1103  1  0.24585073  0.95829908  0.39370301  1.0
  Ti  Ti1104  1  0.35696185  0.08329908  0.39370301  1.0
  Ti  Ti1105  1  0.35696185  0.20829908  0.39370301  1.0
  Ti  Ti1106  1  0.35696185  0.33329908  0.39370301  1.0
  Ti  Ti1107  1  0.35696185  0.45829908  0.39370301  1.0
  Ti  Ti1108  1  0.35696185  0.58329908  0.39370301  1.0
  Ti  Ti1109  1  0.35696185  0.70829908  0.39370301  1.0
  Ti  Ti1110  1  0.35696185  0.83329908  0.39370301  1.0
  Ti  Ti1111  1  0.35696185  0.95829908  0.39370301  1.0
  Ti  Ti1112  1  0.46807296  0.08329908  0.39370301  1.0
  Ti  Ti1113  1  0.46807296  0.20829908  0.39370301  1.0
  Ti  Ti1114  1  0.46807296  0.33329908  0.39370301  1.0
  Ti  Ti1115  1  0.46807296  0.45829908  0.39370301  1.0
  Ti  Ti1116  1  0.46807296  0.58329908  0.39370301  1.0
  Ti  Ti1117  1  0.46807296  0.70829908  0.39370301  1.0
  Ti  Ti1118  1  0.46807296  0.83329908  0.39370301  1.0
  Ti  Ti1119  1  0.46807296  0.95829908  0.39370301  1.0
  Ti  Ti1120  1  0.57918407  0.08329908  0.39370301  1.0
  Ti  Ti1121  1  0.57918407  0.20829908  0.39370301  1.0
  Ti  Ti1122  1  0.57918407  0.33329908  0.39370301  1.0
  Ti  Ti1123  1  0.57918407  0.45829908  0.39370301  1.0
  Ti  Ti1124  1  0.57918407  0.58329908  0.39370301  1.0
  Ti  Ti1125  1  0.57918407  0.70829908  0.39370301  1.0
  Ti  Ti1126  1  0.57918407  0.83329908  0.39370301  1.0
  Ti  Ti1127  1  0.57918407  0.95829908  0.39370301  1.0
  Ti  Ti1128  1  0.69029518  0.08329908  0.39370301  1.0
  Ti  Ti1129  1  0.69029518  0.20829908  0.39370301  1.0
  Ti  Ti1130  1  0.69029518  0.33329908  0.39370301  1.0
  Ti  Ti1131  1  0.69029518  0.45829908  0.39370301  1.0
  Ti  Ti1132  1  0.69029518  0.58329908  0.39370301  1.0
  Ti  Ti1133  1  0.69029518  0.70829908  0.39370301  1.0
  Ti  Ti1134  1  0.69029518  0.83329908  0.39370301  1.0
  Ti  Ti1135  1  0.69029518  0.95829908  0.39370301  1.0
  Ti  Ti1136  1  0.80140629  0.08329908  0.39370301  1.0
  Ti  Ti1137  1  0.80140629  0.20829908  0.39370301  1.0
  Ti  Ti1138  1  0.80140629  0.33329908  0.39370301  1.0
  Ti  Ti1139  1  0.80140629  0.45829908  0.39370301  1.0
  Ti  Ti1140  1  0.80140629  0.58329908  0.39370301  1.0
  Ti  Ti1141  1  0.80140629  0.70829908  0.39370301  1.0
  Ti  Ti1142  1  0.80140629  0.83329908  0.39370301  1.0
  Ti  Ti1143  1  0.80140629  0.95829908  0.39370301  1.0
  Ti  Ti1144  1  0.91251740  0.08329908  0.39370301  1.0
  Ti  Ti1145  1  0.91251740  0.20829908  0.39370301  1.0
  Ti  Ti1146  1  0.91251740  0.33329908  0.39370301  1.0
  Ti  Ti1147  1  0.91251740  0.45829908  0.39370301  1.0
  Ti  Ti1148  1  0.91251740  0.58329908  0.39370301  1.0
  Ti  Ti1149  1  0.91251740  0.70829908  0.39370301  1.0
  Ti  Ti1150  1  0.91251740  0.83329908  0.39370301  1.0
  Ti  Ti1151  1  0.91251740  0.95829908  0.39370301  1.0
  Ti  Ti1152  1  0.07653857  0.08329908  0.48894110  1.0
  Ti  Ti1153  1  0.07653857  0.20829908  0.48894110  1.0
  Ti  Ti1154  1  0.07653857  0.33329908  0.48894110  1.0
  Ti  Ti1155  1  0.07653857  0.45829908  0.48894110  1.0
  Ti  Ti1156  1  0.07653857  0.58329908  0.48894110  1.0
  Ti  Ti1157  1  0.07653857  0.70829908  0.48894110  1.0
  Ti  Ti1158  1  0.07653857  0.83329908  0.48894110  1.0
  Ti  Ti1159  1  0.07653857  0.95829908  0.48894110  1.0
  Ti  Ti1160  1  0.18764968  0.08329908  0.48894110  1.0
  Ti  Ti1161  1  0.18764968  0.20829908  0.48894110  1.0
  Ti  Ti1162  1  0.18764968  0.33329908  0.48894110  1.0
  Ti  Ti1163  1  0.18764968  0.45829908  0.48894110  1.0
  Ti  Ti1164  1  0.18764968  0.58329908  0.48894110  1.0
  Ti  Ti1165  1  0.18764968  0.70829908  0.48894110  1.0
  Ti  Ti1166  1  0.18764968  0.83329908  0.48894110  1.0
  Ti  Ti1167  1  0.18764968  0.95829908  0.48894110  1.0
  Ti  Ti1168  1  0.29876079  0.08329908  0.48894110  1.0
  Ti  Ti1169  1  0.29876079  0.20829908  0.48894110  1.0
  Ti  Ti1170  1  0.29876079  0.33329908  0.48894110  1.0
  Ti  Ti1171  1  0.29876079  0.45829908  0.48894110  1.0
  Ti  Ti1172  1  0.29876079  0.58329908  0.48894110  1.0
  Ti  Ti1173  1  0.29876079  0.70829908  0.48894110  1.0
  Ti  Ti1174  1  0.29876079  0.83329908  0.48894110  1.0
  Ti  Ti1175  1  0.29876079  0.95829908  0.48894110  1.0
  Ti  Ti1176  1  0.40987190  0.08329908  0.48894110  1.0
  Ti  Ti1177  1  0.40987190  0.20829908  0.48894110  1.0
  Ti  Ti1178  1  0.40987190  0.33329908  0.48894110  1.0
  Ti  Ti1179  1  0.40987190  0.45829908  0.48894110  1.0
  Ti  Ti1180  1  0.40987190  0.58329908  0.48894110  1.0
  Ti  Ti1181  1  0.40987190  0.70829908  0.48894110  1.0
  Ti  Ti1182  1  0.40987190  0.83329908  0.48894110  1.0
  Ti  Ti1183  1  0.40987190  0.95829908  0.48894110  1.0
  Ti  Ti1184  1  0.52098301  0.08329908  0.48894110  1.0
  Ti  Ti1185  1  0.52098301  0.20829908  0.48894110  1.0
  Ti  Ti1186  1  0.52098301  0.33329908  0.48894110  1.0
  Ti  Ti1187  1  0.52098301  0.45829908  0.48894110  1.0
  Ti  Ti1188  1  0.52098301  0.58329908  0.48894110  1.0
  Ti  Ti1189  1  0.52098301  0.70829908  0.48894110  1.0
  Ti  Ti1190  1  0.52098301  0.83329908  0.48894110  1.0
  Ti  Ti1191  1  0.52098301  0.95829908  0.48894110  1.0
  Ti  Ti1192  1  0.63209412  0.08329908  0.48894110  1.0
  Ti  Ti1193  1  0.63209412  0.20829908  0.48894110  1.0
  Ti  Ti1194  1  0.63209412  0.33329908  0.48894110  1.0
  Ti  Ti1195  1  0.63209412  0.45829908  0.48894110  1.0
  Ti  Ti1196  1  0.63209412  0.58329908  0.48894110  1.0
  Ti  Ti1197  1  0.63209412  0.70829908  0.48894110  1.0
  Ti  Ti1198  1  0.63209412  0.83329908  0.48894110  1.0
  Ti  Ti1199  1  0.63209412  0.95829908  0.48894110  1.0
  Ti  Ti1200  1  0.74320523  0.08329908  0.48894110  1.0
  Ti  Ti1201  1  0.74320523  0.20829908  0.48894110  1.0
  Ti  Ti1202  1  0.74320523  0.33329908  0.48894110  1.0
  Ti  Ti1203  1  0.74320523  0.45829908  0.48894110  1.0
  Ti  Ti1204  1  0.74320523  0.58329908  0.48894110  1.0
  Ti  Ti1205  1  0.74320523  0.70829908  0.48894110  1.0
  Ti  Ti1206  1  0.74320523  0.83329908  0.48894110  1.0
  Ti  Ti1207  1  0.74320523  0.95829908  0.48894110  1.0
  Ti  Ti1208  1  0.85431634  0.08329908  0.48894110  1.0
  Ti  Ti1209  1  0.85431634  0.20829908  0.48894110  1.0
  Ti  Ti1210  1  0.85431634  0.33329908  0.48894110  1.0
  Ti  Ti1211  1  0.85431634  0.45829908  0.48894110  1.0
  Ti  Ti1212  1  0.85431634  0.58329908  0.48894110  1.0
  Ti  Ti1213  1  0.85431634  0.70829908  0.48894110  1.0
  Ti  Ti1214  1  0.85431634  0.83329908  0.48894110  1.0
  Ti  Ti1215  1  0.85431634  0.95829908  0.48894110  1.0
  Ti  Ti1216  1  0.96542745  0.08329908  0.48894110  1.0
  Ti  Ti1217  1  0.96542745  0.20829908  0.48894110  1.0
  Ti  Ti1218  1  0.96542745  0.33329908  0.48894110  1.0
  Ti  Ti1219  1  0.96542745  0.45829908  0.48894110  1.0
  Ti  Ti1220  1  0.96542745  0.58329908  0.48894110  1.0
  Ti  Ti1221  1  0.96542745  0.70829908  0.48894110  1.0
  Ti  Ti1222  1  0.96542745  0.83329908  0.48894110  1.0
  Ti  Ti1223  1  0.96542745  0.95829908  0.48894110  1.0
  Ti  Ti1224  1  0.05008354  0.08329908  0.44132206  1.0
  Ti  Ti1225  1  0.05008354  0.20829908  0.44132206  1.0
  Ti  Ti1226  1  0.05008354  0.33329908  0.44132206  1.0
  Ti  Ti1227  1  0.05008354  0.45829908  0.44132206  1.0
  Ti  Ti1228  1  0.05008354  0.58329908  0.44132206  1.0
  Ti  Ti1229  1  0.05008354  0.70829908  0.44132206  1.0
  Ti  Ti1230  1  0.05008354  0.83329908  0.44132206  1.0
  Ti  Ti1231  1  0.05008354  0.95829908  0.44132206  1.0
  Ti  Ti1232  1  0.16119465  0.08329908  0.44132206  1.0
  Ti  Ti1233  1  0.16119465  0.20829908  0.44132206  1.0
  Ti  Ti1234  1  0.16119465  0.33329908  0.44132206  1.0
  Ti  Ti1235  1  0.16119465  0.45829908  0.44132206  1.0
  Ti  Ti1236  1  0.16119465  0.58329908  0.44132206  1.0
  Ti  Ti1237  1  0.16119465  0.70829908  0.44132206  1.0
  Ti  Ti1238  1  0.16119465  0.83329908  0.44132206  1.0
  Ti  Ti1239  1  0.16119465  0.95829908  0.44132206  1.0
  Ti  Ti1240  1  0.27230576  0.08329908  0.44132206  1.0
  Ti  Ti1241  1  0.27230576  0.20829908  0.44132206  1.0
  Ti  Ti1242  1  0.27230576  0.33329908  0.44132206  1.0
  Ti  Ti1243  1  0.27230576  0.45829908  0.44132206  1.0
  Ti  Ti1244  1  0.27230576  0.58329908  0.44132206  1.0
  Ti  Ti1245  1  0.27230576  0.70829908  0.44132206  1.0
  Ti  Ti1246  1  0.27230576  0.83329908  0.44132206  1.0
  Ti  Ti1247  1  0.27230576  0.95829908  0.44132206  1.0
  Ti  Ti1248  1  0.38341687  0.08329908  0.44132206  1.0
  Ti  Ti1249  1  0.38341687  0.20829908  0.44132206  1.0
  Ti  Ti1250  1  0.38341687  0.33329908  0.44132206  1.0
  Ti  Ti1251  1  0.38341687  0.45829908  0.44132206  1.0
  Ti  Ti1252  1  0.38341687  0.58329908  0.44132206  1.0
  Ti  Ti1253  1  0.38341687  0.70829908  0.44132206  1.0
  Ti  Ti1254  1  0.38341687  0.83329908  0.44132206  1.0
  Ti  Ti1255  1  0.38341687  0.95829908  0.44132206  1.0
  Ti  Ti1256  1  0.49452798  0.08329908  0.44132206  1.0
  Ti  Ti1257  1  0.49452798  0.20829908  0.44132206  1.0
  Ti  Ti1258  1  0.49452798  0.33329908  0.44132206  1.0
  Ti  Ti1259  1  0.49452798  0.45829908  0.44132206  1.0
  Ti  Ti1260  1  0.49452798  0.58329908  0.44132206  1.0
  Ti  Ti1261  1  0.49452798  0.70829908  0.44132206  1.0
  Ti  Ti1262  1  0.49452798  0.83329908  0.44132206  1.0
  Ti  Ti1263  1  0.49452798  0.95829908  0.44132206  1.0
  Ti  Ti1264  1  0.60563909  0.08329908  0.44132206  1.0
  Ti  Ti1265  1  0.60563909  0.20829908  0.44132206  1.0
  Ti  Ti1266  1  0.60563909  0.33329908  0.44132206  1.0
  Ti  Ti1267  1  0.60563909  0.45829908  0.44132206  1.0
  Ti  Ti1268  1  0.60563909  0.58329908  0.44132206  1.0
  Ti  Ti1269  1  0.60563909  0.70829908  0.44132206  1.0
  Ti  Ti1270  1  0.60563909  0.83329908  0.44132206  1.0
  Ti  Ti1271  1  0.60563909  0.95829908  0.44132206  1.0
  Ti  Ti1272  1  0.71675021  0.08329908  0.44132206  1.0
  Ti  Ti1273  1  0.71675021  0.20829908  0.44132206  1.0
  Ti  Ti1274  1  0.71675021  0.33329908  0.44132206  1.0
  Ti  Ti1275  1  0.71675021  0.45829908  0.44132206  1.0
  Ti  Ti1276  1  0.71675021  0.58329908  0.44132206  1.0
  Ti  Ti1277  1  0.71675021  0.70829908  0.44132206  1.0
  Ti  Ti1278  1  0.71675021  0.83329908  0.44132206  1.0
  Ti  Ti1279  1  0.71675021  0.95829908  0.44132206  1.0
  Ti  Ti1280  1  0.82786132  0.08329908  0.44132206  1.0
  Ti  Ti1281  1  0.82786132  0.20829908  0.44132206  1.0
  Ti  Ti1282  1  0.82786132  0.33329908  0.44132206  1.0
  Ti  Ti1283  1  0.82786132  0.45829908  0.44132206  1.0
  Ti  Ti1284  1  0.82786132  0.58329908  0.44132206  1.0
  Ti  Ti1285  1  0.82786132  0.70829908  0.44132206  1.0
  Ti  Ti1286  1  0.82786132  0.83329908  0.44132206  1.0
  Ti  Ti1287  1  0.82786132  0.95829908  0.44132206  1.0
  Ti  Ti1288  1  0.93897243  0.08329908  0.44132206  1.0
  Ti  Ti1289  1  0.93897243  0.20829908  0.44132206  1.0
  Ti  Ti1290  1  0.93897243  0.33329908  0.44132206  1.0
  Ti  Ti1291  1  0.93897243  0.45829908  0.44132206  1.0
  Ti  Ti1292  1  0.93897243  0.58329908  0.44132206  1.0
  Ti  Ti1293  1  0.93897243  0.70829908  0.44132206  1.0
  Ti  Ti1294  1  0.93897243  0.83329908  0.44132206  1.0
  Ti  Ti1295  1  0.93897243  0.95829908  0.44132206  1.0
  Ti  Ti1296  1  0.03986355  0.02079908  0.41582080  1.0
  Ti  Ti1297  1  0.03986355  0.14579908  0.41582080  1.0
  Ti  Ti1298  1  0.03986355  0.27079908  0.41582080  1.0
  Ti  Ti1299  1  0.03986355  0.39579908  0.41582080  1.0
  Ti  Ti1300  1  0.03986355  0.52079908  0.41582080  1.0
  Ti  Ti1301  1  0.03986355  0.64579908  0.41582080  1.0
  Ti  Ti1302  1  0.03986355  0.77079908  0.41582080  1.0
  Ti  Ti1303  1  0.03986355  0.89579908  0.41582080  1.0
  Ti  Ti1304  1  0.15097466  0.02079908  0.41582080  1.0
  Ti  Ti1305  1  0.15097466  0.14579908  0.41582080  1.0
  Ti  Ti1306  1  0.15097466  0.27079908  0.41582080  1.0
  Ti  Ti1307  1  0.15097466  0.39579908  0.41582080  1.0
  Ti  Ti1308  1  0.15097466  0.52079908  0.41582080  1.0
  Ti  Ti1309  1  0.15097466  0.64579908  0.41582080  1.0
  Ti  Ti1310  1  0.15097466  0.77079908  0.41582080  1.0
  Ti  Ti1311  1  0.15097466  0.89579908  0.41582080  1.0
  Ti  Ti1312  1  0.26208577  0.02079908  0.41582080  1.0
  Ti  Ti1313  1  0.26208577  0.14579908  0.41582080  1.0
  Ti  Ti1314  1  0.26208577  0.27079908  0.41582080  1.0
  Ti  Ti1315  1  0.26208577  0.39579908  0.41582080  1.0
  Ti  Ti1316  1  0.26208577  0.52079908  0.41582080  1.0
  Ti  Ti1317  1  0.26208577  0.64579908  0.41582080  1.0
  Ti  Ti1318  1  0.26208577  0.77079908  0.41582080  1.0
  Ti  Ti1319  1  0.26208577  0.89579908  0.41582080  1.0
  Ti  Ti1320  1  0.37319688  0.02079908  0.41582080  1.0
  Ti  Ti1321  1  0.37319688  0.14579908  0.41582080  1.0
  Ti  Ti1322  1  0.37319688  0.27079908  0.41582080  1.0
  Ti  Ti1323  1  0.37319688  0.39579908  0.41582080  1.0
  Ti  Ti1324  1  0.37319688  0.52079908  0.41582080  1.0
  Ti  Ti1325  1  0.37319688  0.64579908  0.41582080  1.0
  Ti  Ti1326  1  0.37319688  0.77079908  0.41582080  1.0
  Ti  Ti1327  1  0.37319688  0.89579908  0.41582080  1.0
  Ti  Ti1328  1  0.48430800  0.02079908  0.41582080  1.0
  Ti  Ti1329  1  0.48430800  0.14579908  0.41582080  1.0
  Ti  Ti1330  1  0.48430800  0.27079908  0.41582080  1.0
  Ti  Ti1331  1  0.48430800  0.39579908  0.41582080  1.0
  Ti  Ti1332  1  0.48430800  0.52079908  0.41582080  1.0
  Ti  Ti1333  1  0.48430800  0.64579908  0.41582080  1.0
  Ti  Ti1334  1  0.48430800  0.77079908  0.41582080  1.0
  Ti  Ti1335  1  0.48430800  0.89579908  0.41582080  1.0
  Ti  Ti1336  1  0.59541911  0.02079908  0.41582080  1.0
  Ti  Ti1337  1  0.59541911  0.14579908  0.41582080  1.0
  Ti  Ti1338  1  0.59541911  0.27079908  0.41582080  1.0
  Ti  Ti1339  1  0.59541911  0.39579908  0.41582080  1.0
  Ti  Ti1340  1  0.59541911  0.52079908  0.41582080  1.0
  Ti  Ti1341  1  0.59541911  0.64579908  0.41582080  1.0
  Ti  Ti1342  1  0.59541911  0.77079908  0.41582080  1.0
  Ti  Ti1343  1  0.59541911  0.89579908  0.41582080  1.0
  Ti  Ti1344  1  0.70653022  0.02079908  0.41582080  1.0
  Ti  Ti1345  1  0.70653022  0.14579908  0.41582080  1.0
  Ti  Ti1346  1  0.70653022  0.27079908  0.41582080  1.0
  Ti  Ti1347  1  0.70653022  0.39579908  0.41582080  1.0
  Ti  Ti1348  1  0.70653022  0.52079908  0.41582080  1.0
  Ti  Ti1349  1  0.70653022  0.64579908  0.41582080  1.0
  Ti  Ti1350  1  0.70653022  0.77079908  0.41582080  1.0
  Ti  Ti1351  1  0.70653022  0.89579908  0.41582080  1.0
  Ti  Ti1352  1  0.81764133  0.02079908  0.41582080  1.0
  Ti  Ti1353  1  0.81764133  0.14579908  0.41582080  1.0
  Ti  Ti1354  1  0.81764133  0.27079908  0.41582080  1.0
  Ti  Ti1355  1  0.81764133  0.39579908  0.41582080  1.0
  Ti  Ti1356  1  0.81764133  0.52079908  0.41582080  1.0
  Ti  Ti1357  1  0.81764133  0.64579908  0.41582080  1.0
  Ti  Ti1358  1  0.81764133  0.77079908  0.41582080  1.0
  Ti  Ti1359  1  0.81764133  0.89579908  0.41582080  1.0
  Ti  Ti1360  1  0.92875244  0.02079908  0.41582080  1.0
  Ti  Ti1361  1  0.92875244  0.14579908  0.41582080  1.0
  Ti  Ti1362  1  0.92875244  0.27079908  0.41582080  1.0
  Ti  Ti1363  1  0.92875244  0.39579908  0.41582080  1.0
  Ti  Ti1364  1  0.92875244  0.52079908  0.41582080  1.0
  Ti  Ti1365  1  0.92875244  0.64579908  0.41582080  1.0
  Ti  Ti1366  1  0.92875244  0.77079908  0.41582080  1.0
  Ti  Ti1367  1  0.92875244  0.89579908  0.41582080  1.0
  Ti  Ti1368  1  0.01340852  0.02079908  0.36820175  1.0
  Ti  Ti1369  1  0.01340852  0.14579908  0.36820175  1.0
  Ti  Ti1370  1  0.01340852  0.27079908  0.36820175  1.0
  Ti  Ti1371  1  0.01340852  0.39579908  0.36820175  1.0
  Ti  Ti1372  1  0.01340852  0.52079908  0.36820175  1.0
  Ti  Ti1373  1  0.01340852  0.64579908  0.36820175  1.0
  Ti  Ti1374  1  0.01340852  0.77079908  0.36820175  1.0
  Ti  Ti1375  1  0.01340852  0.89579908  0.36820175  1.0
  Ti  Ti1376  1  0.12451964  0.02079908  0.36820175  1.0
  Ti  Ti1377  1  0.12451964  0.14579908  0.36820175  1.0
  Ti  Ti1378  1  0.12451964  0.27079908  0.36820175  1.0
  Ti  Ti1379  1  0.12451964  0.39579908  0.36820175  1.0
  Ti  Ti1380  1  0.12451964  0.52079908  0.36820175  1.0
  Ti  Ti1381  1  0.12451964  0.64579908  0.36820175  1.0
  Ti  Ti1382  1  0.12451964  0.77079908  0.36820175  1.0
  Ti  Ti1383  1  0.12451964  0.89579908  0.36820175  1.0
  Ti  Ti1384  1  0.23563075  0.02079908  0.36820175  1.0
  Ti  Ti1385  1  0.23563075  0.14579908  0.36820175  1.0
  Ti  Ti1386  1  0.23563075  0.27079908  0.36820175  1.0
  Ti  Ti1387  1  0.23563075  0.39579908  0.36820175  1.0
  Ti  Ti1388  1  0.23563075  0.52079908  0.36820175  1.0
  Ti  Ti1389  1  0.23563075  0.64579908  0.36820175  1.0
  Ti  Ti1390  1  0.23563075  0.77079908  0.36820175  1.0
  Ti  Ti1391  1  0.23563075  0.89579908  0.36820175  1.0
  Ti  Ti1392  1  0.34674186  0.02079908  0.36820175  1.0
  Ti  Ti1393  1  0.34674186  0.14579908  0.36820175  1.0
  Ti  Ti1394  1  0.34674186  0.27079908  0.36820175  1.0
  Ti  Ti1395  1  0.34674186  0.39579908  0.36820175  1.0
  Ti  Ti1396  1  0.34674186  0.52079908  0.36820175  1.0
  Ti  Ti1397  1  0.34674186  0.64579908  0.36820175  1.0
  Ti  Ti1398  1  0.34674186  0.77079908  0.36820175  1.0
  Ti  Ti1399  1  0.34674186  0.89579908  0.36820175  1.0
  Ti  Ti1400  1  0.45785297  0.02079908  0.36820175  1.0
  Ti  Ti1401  1  0.45785297  0.14579908  0.36820175  1.0
  Ti  Ti1402  1  0.45785297  0.27079908  0.36820175  1.0
  Ti  Ti1403  1  0.45785297  0.39579908  0.36820175  1.0
  Ti  Ti1404  1  0.45785297  0.52079908  0.36820175  1.0
  Ti  Ti1405  1  0.45785297  0.64579908  0.36820175  1.0
  Ti  Ti1406  1  0.45785297  0.77079908  0.36820175  1.0
  Ti  Ti1407  1  0.45785297  0.89579908  0.36820175  1.0
  Ti  Ti1408  1  0.56896408  0.02079908  0.36820175  1.0
  Ti  Ti1409  1  0.56896408  0.14579908  0.36820175  1.0
  Ti  Ti1410  1  0.56896408  0.27079908  0.36820175  1.0
  Ti  Ti1411  1  0.56896408  0.39579908  0.36820175  1.0
  Ti  Ti1412  1  0.56896408  0.52079908  0.36820175  1.0
  Ti  Ti1413  1  0.56896408  0.64579908  0.36820175  1.0
  Ti  Ti1414  1  0.56896408  0.77079908  0.36820175  1.0
  Ti  Ti1415  1  0.56896408  0.89579908  0.36820175  1.0
  Ti  Ti1416  1  0.68007519  0.02079908  0.36820175  1.0
  Ti  Ti1417  1  0.68007519  0.14579908  0.36820175  1.0
  Ti  Ti1418  1  0.68007519  0.27079908  0.36820175  1.0
  Ti  Ti1419  1  0.68007519  0.39579908  0.36820175  1.0
  Ti  Ti1420  1  0.68007519  0.52079908  0.36820175  1.0
  Ti  Ti1421  1  0.68007519  0.64579908  0.36820175  1.0
  Ti  Ti1422  1  0.68007519  0.77079908  0.36820175  1.0
  Ti  Ti1423  1  0.68007519  0.89579908  0.36820175  1.0
  Ti  Ti1424  1  0.79118630  0.02079908  0.36820175  1.0
  Ti  Ti1425  1  0.79118630  0.14579908  0.36820175  1.0
  Ti  Ti1426  1  0.79118630  0.27079908  0.36820175  1.0
  Ti  Ti1427  1  0.79118630  0.39579908  0.36820175  1.0
  Ti  Ti1428  1  0.79118630  0.52079908  0.36820175  1.0
  Ti  Ti1429  1  0.79118630  0.64579908  0.36820175  1.0
  Ti  Ti1430  1  0.79118630  0.77079908  0.36820175  1.0
  Ti  Ti1431  1  0.79118630  0.89579908  0.36820175  1.0
  Ti  Ti1432  1  0.90229741  0.02079908  0.36820175  1.0
  Ti  Ti1433  1  0.90229741  0.14579908  0.36820175  1.0
  Ti  Ti1434  1  0.90229741  0.27079908  0.36820175  1.0
  Ti  Ti1435  1  0.90229741  0.39579908  0.36820175  1.0
  Ti  Ti1436  1  0.90229741  0.52079908  0.36820175  1.0
  Ti  Ti1437  1  0.90229741  0.64579908  0.36820175  1.0
  Ti  Ti1438  1  0.90229741  0.77079908  0.36820175  1.0
  Ti  Ti1439  1  0.90229741  0.89579908  0.36820175  1.0
  Ti  Ti1440  1  0.06631858  0.02079908  0.46343985  1.0
  Ti  Ti1441  1  0.06631858  0.14579908  0.46343985  1.0
  Ti  Ti1442  1  0.06631858  0.27079908  0.46343985  1.0
  Ti  Ti1443  1  0.06631858  0.39579908  0.46343985  1.0
  Ti  Ti1444  1  0.06631858  0.52079908  0.46343985  1.0
  Ti  Ti1445  1  0.06631858  0.64579908  0.46343985  1.0
  Ti  Ti1446  1  0.06631858  0.77079908  0.46343985  1.0
  Ti  Ti1447  1  0.06631858  0.89579908  0.46343985  1.0
  Ti  Ti1448  1  0.17742969  0.02079908  0.46343985  1.0
  Ti  Ti1449  1  0.17742969  0.14579908  0.46343985  1.0
  Ti  Ti1450  1  0.17742969  0.27079908  0.46343985  1.0
  Ti  Ti1451  1  0.17742969  0.39579908  0.46343985  1.0
  Ti  Ti1452  1  0.17742969  0.52079908  0.46343985  1.0
  Ti  Ti1453  1  0.17742969  0.64579908  0.46343985  1.0
  Ti  Ti1454  1  0.17742969  0.77079908  0.46343985  1.0
  Ti  Ti1455  1  0.17742969  0.89579908  0.46343985  1.0
  Ti  Ti1456  1  0.28854080  0.02079908  0.46343985  1.0
  Ti  Ti1457  1  0.28854080  0.14579908  0.46343985  1.0
  Ti  Ti1458  1  0.28854080  0.27079908  0.46343985  1.0
  Ti  Ti1459  1  0.28854080  0.39579908  0.46343985  1.0
  Ti  Ti1460  1  0.28854080  0.52079908  0.46343985  1.0
  Ti  Ti1461  1  0.28854080  0.64579908  0.46343985  1.0
  Ti  Ti1462  1  0.28854080  0.77079908  0.46343985  1.0
  Ti  Ti1463  1  0.28854080  0.89579908  0.46343985  1.0
  Ti  Ti1464  1  0.39965191  0.02079908  0.46343985  1.0
  Ti  Ti1465  1  0.39965191  0.14579908  0.46343985  1.0
  Ti  Ti1466  1  0.39965191  0.27079908  0.46343985  1.0
  Ti  Ti1467  1  0.39965191  0.39579908  0.46343985  1.0
  Ti  Ti1468  1  0.39965191  0.52079908  0.46343985  1.0
  Ti  Ti1469  1  0.39965191  0.64579908  0.46343985  1.0
  Ti  Ti1470  1  0.39965191  0.77079908  0.46343985  1.0
  Ti  Ti1471  1  0.39965191  0.89579908  0.46343985  1.0
  Ti  Ti1472  1  0.51076302  0.02079908  0.46343985  1.0
  Ti  Ti1473  1  0.51076302  0.14579908  0.46343985  1.0
  Ti  Ti1474  1  0.51076302  0.27079908  0.46343985  1.0
  Ti  Ti1475  1  0.51076302  0.39579908  0.46343985  1.0
  Ti  Ti1476  1  0.51076302  0.52079908  0.46343985  1.0
  Ti  Ti1477  1  0.51076302  0.64579908  0.46343985  1.0
  Ti  Ti1478  1  0.51076302  0.77079908  0.46343985  1.0
  Ti  Ti1479  1  0.51076302  0.89579908  0.46343985  1.0
  Ti  Ti1480  1  0.62187413  0.02079908  0.46343985  1.0
  Ti  Ti1481  1  0.62187413  0.14579908  0.46343985  1.0
  Ti  Ti1482  1  0.62187413  0.27079908  0.46343985  1.0
  Ti  Ti1483  1  0.62187413  0.39579908  0.46343985  1.0
  Ti  Ti1484  1  0.62187413  0.52079908  0.46343985  1.0
  Ti  Ti1485  1  0.62187413  0.64579908  0.46343985  1.0
  Ti  Ti1486  1  0.62187413  0.77079908  0.46343985  1.0
  Ti  Ti1487  1  0.62187413  0.89579908  0.46343985  1.0
  Ti  Ti1488  1  0.73298524  0.02079908  0.46343985  1.0
  Ti  Ti1489  1  0.73298524  0.14579908  0.46343985  1.0
  Ti  Ti1490  1  0.73298524  0.27079908  0.46343985  1.0
  Ti  Ti1491  1  0.73298524  0.39579908  0.46343985  1.0
  Ti  Ti1492  1  0.73298524  0.52079908  0.46343985  1.0
  Ti  Ti1493  1  0.73298524  0.64579908  0.46343985  1.0
  Ti  Ti1494  1  0.73298524  0.77079908  0.46343985  1.0
  Ti  Ti1495  1  0.73298524  0.89579908  0.46343985  1.0
  Ti  Ti1496  1  0.84409636  0.02079908  0.46343985  1.0
  Ti  Ti1497  1  0.84409636  0.14579908  0.46343985  1.0
  Ti  Ti1498  1  0.84409636  0.27079908  0.46343985  1.0
  Ti  Ti1499  1  0.84409636  0.39579908  0.46343985  1.0
  Ti  Ti1500  1  0.84409636  0.52079908  0.46343985  1.0
  Ti  Ti1501  1  0.84409636  0.64579908  0.46343985  1.0
  Ti  Ti1502  1  0.84409636  0.77079908  0.46343985  1.0
  Ti  Ti1503  1  0.84409636  0.89579908  0.46343985  1.0
  Ti  Ti1504  1  0.95520747  0.02079908  0.46343985  1.0
  Ti  Ti1505  1  0.95520747  0.14579908  0.46343985  1.0
  Ti  Ti1506  1  0.95520747  0.27079908  0.46343985  1.0
  Ti  Ti1507  1  0.95520747  0.39579908  0.46343985  1.0
  Ti  Ti1508  1  0.95520747  0.52079908  0.46343985  1.0
  Ti  Ti1509  1  0.95520747  0.64579908  0.46343985  1.0
  Ti  Ti1510  1  0.95520747  0.77079908  0.46343985  1.0
  Ti  Ti1511  1  0.95520747  0.89579908  0.46343985  1.0
  Ti  Ti1512  1  0.06595655  0.10420092  0.36989349  1.0
  Ti  Ti1513  1  0.06595655  0.22920092  0.36989349  1.0
  Ti  Ti1514  1  0.06595655  0.35420092  0.36989349  1.0
  Ti  Ti1515  1  0.06595655  0.47920092  0.36989349  1.0
  Ti  Ti1516  1  0.06595655  0.60420092  0.36989349  1.0
  Ti  Ti1517  1  0.06595655  0.72920092  0.36989349  1.0
  Ti  Ti1518  1  0.06595655  0.85420092  0.36989349  1.0
  Ti  Ti1519  1  0.06595655  0.97920092  0.36989349  1.0
  Ti  Ti1520  1  0.17706767  0.10420092  0.36989349  1.0
  Ti  Ti1521  1  0.17706767  0.22920092  0.36989349  1.0
  Ti  Ti1522  1  0.17706767  0.35420092  0.36989349  1.0
  Ti  Ti1523  1  0.17706767  0.47920092  0.36989349  1.0
  Ti  Ti1524  1  0.17706767  0.60420092  0.36989349  1.0
  Ti  Ti1525  1  0.17706767  0.72920092  0.36989349  1.0
  Ti  Ti1526  1  0.17706767  0.85420092  0.36989349  1.0
  Ti  Ti1527  1  0.17706767  0.97920092  0.36989349  1.0
  Ti  Ti1528  1  0.28817878  0.10420092  0.36989349  1.0
  Ti  Ti1529  1  0.28817878  0.22920092  0.36989349  1.0
  Ti  Ti1530  1  0.28817878  0.35420092  0.36989349  1.0
  Ti  Ti1531  1  0.28817878  0.47920092  0.36989349  1.0
  Ti  Ti1532  1  0.28817878  0.60420092  0.36989349  1.0
  Ti  Ti1533  1  0.28817878  0.72920092  0.36989349  1.0
  Ti  Ti1534  1  0.28817878  0.85420092  0.36989349  1.0
  Ti  Ti1535  1  0.28817878  0.97920092  0.36989349  1.0
  Ti  Ti1536  1  0.39928989  0.10420092  0.36989349  1.0
  Ti  Ti1537  1  0.39928989  0.22920092  0.36989349  1.0
  Ti  Ti1538  1  0.39928989  0.35420092  0.36989349  1.0
  Ti  Ti1539  1  0.39928989  0.47920092  0.36989349  1.0
  Ti  Ti1540  1  0.39928989  0.60420092  0.36989349  1.0
  Ti  Ti1541  1  0.39928989  0.72920092  0.36989349  1.0
  Ti  Ti1542  1  0.39928989  0.85420092  0.36989349  1.0
  Ti  Ti1543  1  0.39928989  0.97920092  0.36989349  1.0
  Ti  Ti1544  1  0.51040100  0.10420092  0.36989349  1.0
  Ti  Ti1545  1  0.51040100  0.22920092  0.36989349  1.0
  Ti  Ti1546  1  0.51040100  0.35420092  0.36989349  1.0
  Ti  Ti1547  1  0.51040100  0.47920092  0.36989349  1.0
  Ti  Ti1548  1  0.51040100  0.60420092  0.36989349  1.0
  Ti  Ti1549  1  0.51040100  0.72920092  0.36989349  1.0
  Ti  Ti1550  1  0.51040100  0.85420092  0.36989349  1.0
  Ti  Ti1551  1  0.51040100  0.97920092  0.36989349  1.0
  Ti  Ti1552  1  0.62151211  0.10420092  0.36989349  1.0
  Ti  Ti1553  1  0.62151211  0.22920092  0.36989349  1.0
  Ti  Ti1554  1  0.62151211  0.35420092  0.36989349  1.0
  Ti  Ti1555  1  0.62151211  0.47920092  0.36989349  1.0
  Ti  Ti1556  1  0.62151211  0.60420092  0.36989349  1.0
  Ti  Ti1557  1  0.62151211  0.72920092  0.36989349  1.0
  Ti  Ti1558  1  0.62151211  0.85420092  0.36989349  1.0
  Ti  Ti1559  1  0.62151211  0.97920092  0.36989349  1.0
  Ti  Ti1560  1  0.73262322  0.10420092  0.36989349  1.0
  Ti  Ti1561  1  0.73262322  0.22920092  0.36989349  1.0
  Ti  Ti1562  1  0.73262322  0.35420092  0.36989349  1.0
  Ti  Ti1563  1  0.73262322  0.47920092  0.36989349  1.0
  Ti  Ti1564  1  0.73262322  0.60420092  0.36989349  1.0
  Ti  Ti1565  1  0.73262322  0.72920092  0.36989349  1.0
  Ti  Ti1566  1  0.73262322  0.85420092  0.36989349  1.0
  Ti  Ti1567  1  0.73262322  0.97920092  0.36989349  1.0
  Ti  Ti1568  1  0.84373433  0.10420092  0.36989349  1.0
  Ti  Ti1569  1  0.84373433  0.22920092  0.36989349  1.0
  Ti  Ti1570  1  0.84373433  0.35420092  0.36989349  1.0
  Ti  Ti1571  1  0.84373433  0.47920092  0.36989349  1.0
  Ti  Ti1572  1  0.84373433  0.60420092  0.36989349  1.0
  Ti  Ti1573  1  0.84373433  0.72920092  0.36989349  1.0
  Ti  Ti1574  1  0.84373433  0.85420092  0.36989349  1.0
  Ti  Ti1575  1  0.84373433  0.97920092  0.36989349  1.0
  Ti  Ti1576  1  0.95484544  0.10420092  0.36989349  1.0
  Ti  Ti1577  1  0.95484544  0.22920092  0.36989349  1.0
  Ti  Ti1578  1  0.95484544  0.35420092  0.36989349  1.0
  Ti  Ti1579  1  0.95484544  0.47920092  0.36989349  1.0
  Ti  Ti1580  1  0.95484544  0.60420092  0.36989349  1.0
  Ti  Ti1581  1  0.95484544  0.72920092  0.36989349  1.0
  Ti  Ti1582  1  0.95484544  0.85420092  0.36989349  1.0
  Ti  Ti1583  1  0.95484544  0.97920092  0.36989349  1.0
  Ti  Ti1584  1  0.00775550  0.10420092  0.46513158  1.0
  Ti  Ti1585  1  0.00775550  0.22920092  0.46513158  1.0
  Ti  Ti1586  1  0.00775550  0.35420092  0.46513158  1.0
  Ti  Ti1587  1  0.00775550  0.47920092  0.46513158  1.0
  Ti  Ti1588  1  0.00775550  0.60420092  0.46513158  1.0
  Ti  Ti1589  1  0.00775550  0.72920092  0.46513158  1.0
  Ti  Ti1590  1  0.00775550  0.85420092  0.46513158  1.0
  Ti  Ti1591  1  0.00775550  0.97920092  0.46513158  1.0
  Ti  Ti1592  1  0.11886661  0.10420092  0.46513158  1.0
  Ti  Ti1593  1  0.11886661  0.22920092  0.46513158  1.0
  Ti  Ti1594  1  0.11886661  0.35420092  0.46513158  1.0
  Ti  Ti1595  1  0.11886661  0.47920092  0.46513158  1.0
  Ti  Ti1596  1  0.11886661  0.60420092  0.46513158  1.0
  Ti  Ti1597  1  0.11886661  0.72920092  0.46513158  1.0
  Ti  Ti1598  1  0.11886661  0.85420092  0.46513158  1.0
  Ti  Ti1599  1  0.11886661  0.97920092  0.46513158  1.0
  Ti  Ti1600  1  0.22997772  0.10420092  0.46513158  1.0
  Ti  Ti1601  1  0.22997772  0.22920092  0.46513158  1.0
  Ti  Ti1602  1  0.22997772  0.35420092  0.46513158  1.0
  Ti  Ti1603  1  0.22997772  0.47920092  0.46513158  1.0
  Ti  Ti1604  1  0.22997772  0.60420092  0.46513158  1.0
  Ti  Ti1605  1  0.22997772  0.72920092  0.46513158  1.0
  Ti  Ti1606  1  0.22997772  0.85420092  0.46513158  1.0
  Ti  Ti1607  1  0.22997772  0.97920092  0.46513158  1.0
  Ti  Ti1608  1  0.34108883  0.10420092  0.46513158  1.0
  Ti  Ti1609  1  0.34108883  0.22920092  0.46513158  1.0
  Ti  Ti1610  1  0.34108883  0.35420092  0.46513158  1.0
  Ti  Ti1611  1  0.34108883  0.47920092  0.46513158  1.0
  Ti  Ti1612  1  0.34108883  0.60420092  0.46513158  1.0
  Ti  Ti1613  1  0.34108883  0.72920092  0.46513158  1.0
  Ti  Ti1614  1  0.34108883  0.85420092  0.46513158  1.0
  Ti  Ti1615  1  0.34108883  0.97920092  0.46513158  1.0
  Ti  Ti1616  1  0.45219994  0.10420092  0.46513158  1.0
  Ti  Ti1617  1  0.45219994  0.22920092  0.46513158  1.0
  Ti  Ti1618  1  0.45219994  0.35420092  0.46513158  1.0
  Ti  Ti1619  1  0.45219994  0.47920092  0.46513158  1.0
  Ti  Ti1620  1  0.45219994  0.60420092  0.46513158  1.0
  Ti  Ti1621  1  0.45219994  0.72920092  0.46513158  1.0
  Ti  Ti1622  1  0.45219994  0.85420092  0.46513158  1.0
  Ti  Ti1623  1  0.45219994  0.97920092  0.46513158  1.0
  Ti  Ti1624  1  0.56331105  0.10420092  0.46513158  1.0
  Ti  Ti1625  1  0.56331105  0.22920092  0.46513158  1.0
  Ti  Ti1626  1  0.56331105  0.35420092  0.46513158  1.0
  Ti  Ti1627  1  0.56331105  0.47920092  0.46513158  1.0
  Ti  Ti1628  1  0.56331105  0.60420092  0.46513158  1.0
  Ti  Ti1629  1  0.56331105  0.72920092  0.46513158  1.0
  Ti  Ti1630  1  0.56331105  0.85420092  0.46513158  1.0
  Ti  Ti1631  1  0.56331105  0.97920092  0.46513158  1.0
  Ti  Ti1632  1  0.67442216  0.10420092  0.46513158  1.0
  Ti  Ti1633  1  0.67442216  0.22920092  0.46513158  1.0
  Ti  Ti1634  1  0.67442216  0.35420092  0.46513158  1.0
  Ti  Ti1635  1  0.67442216  0.47920092  0.46513158  1.0
  Ti  Ti1636  1  0.67442216  0.60420092  0.46513158  1.0
  Ti  Ti1637  1  0.67442216  0.72920092  0.46513158  1.0
  Ti  Ti1638  1  0.67442216  0.85420092  0.46513158  1.0
  Ti  Ti1639  1  0.67442216  0.97920092  0.46513158  1.0
  Ti  Ti1640  1  0.78553327  0.10420092  0.46513158  1.0
  Ti  Ti1641  1  0.78553327  0.22920092  0.46513158  1.0
  Ti  Ti1642  1  0.78553327  0.35420092  0.46513158  1.0
  Ti  Ti1643  1  0.78553327  0.47920092  0.46513158  1.0
  Ti  Ti1644  1  0.78553327  0.60420092  0.46513158  1.0
  Ti  Ti1645  1  0.78553327  0.72920092  0.46513158  1.0
  Ti  Ti1646  1  0.78553327  0.85420092  0.46513158  1.0
  Ti  Ti1647  1  0.78553327  0.97920092  0.46513158  1.0
  Ti  Ti1648  1  0.89664439  0.10420092  0.46513158  1.0
  Ti  Ti1649  1  0.89664439  0.22920092  0.46513158  1.0
  Ti  Ti1650  1  0.89664439  0.35420092  0.46513158  1.0
  Ti  Ti1651  1  0.89664439  0.47920092  0.46513158  1.0
  Ti  Ti1652  1  0.89664439  0.60420092  0.46513158  1.0
  Ti  Ti1653  1  0.89664439  0.72920092  0.46513158  1.0
  Ti  Ti1654  1  0.89664439  0.85420092  0.46513158  1.0
  Ti  Ti1655  1  0.89664439  0.97920092  0.46513158  1.0
  Ti  Ti1656  1  0.09241158  0.10420092  0.41751253  1.0
  Ti  Ti1657  1  0.09241158  0.22920092  0.41751253  1.0
  Ti  Ti1658  1  0.09241158  0.35420092  0.41751253  1.0
  Ti  Ti1659  1  0.09241158  0.47920092  0.41751253  1.0
  Ti  Ti1660  1  0.09241158  0.60420092  0.41751253  1.0
  Ti  Ti1661  1  0.09241158  0.72920092  0.41751253  1.0
  Ti  Ti1662  1  0.09241158  0.85420092  0.41751253  1.0
  Ti  Ti1663  1  0.09241158  0.97920092  0.41751253  1.0
  Ti  Ti1664  1  0.20352269  0.10420092  0.41751253  1.0
  Ti  Ti1665  1  0.20352269  0.22920092  0.41751253  1.0
  Ti  Ti1666  1  0.20352269  0.35420092  0.41751253  1.0
  Ti  Ti1667  1  0.20352269  0.47920092  0.41751253  1.0
  Ti  Ti1668  1  0.20352269  0.60420092  0.41751253  1.0
  Ti  Ti1669  1  0.20352269  0.72920092  0.41751253  1.0
  Ti  Ti1670  1  0.20352269  0.85420092  0.41751253  1.0
  Ti  Ti1671  1  0.20352269  0.97920092  0.41751253  1.0
  Ti  Ti1672  1  0.31463380  0.10420092  0.41751253  1.0
  Ti  Ti1673  1  0.31463380  0.22920092  0.41751253  1.0
  Ti  Ti1674  1  0.31463380  0.35420092  0.41751253  1.0
  Ti  Ti1675  1  0.31463380  0.47920092  0.41751253  1.0
  Ti  Ti1676  1  0.31463380  0.60420092  0.41751253  1.0
  Ti  Ti1677  1  0.31463380  0.72920092  0.41751253  1.0
  Ti  Ti1678  1  0.31463380  0.85420092  0.41751253  1.0
  Ti  Ti1679  1  0.31463380  0.97920092  0.41751253  1.0
  Ti  Ti1680  1  0.42574491  0.10420092  0.41751253  1.0
  Ti  Ti1681  1  0.42574491  0.22920092  0.41751253  1.0
  Ti  Ti1682  1  0.42574491  0.35420092  0.41751253  1.0
  Ti  Ti1683  1  0.42574491  0.47920092  0.41751253  1.0
  Ti  Ti1684  1  0.42574491  0.60420092  0.41751253  1.0
  Ti  Ti1685  1  0.42574491  0.72920092  0.41751253  1.0
  Ti  Ti1686  1  0.42574491  0.85420092  0.41751253  1.0
  Ti  Ti1687  1  0.42574491  0.97920092  0.41751253  1.0
  Ti  Ti1688  1  0.53685603  0.10420092  0.41751253  1.0
  Ti  Ti1689  1  0.53685603  0.22920092  0.41751253  1.0
  Ti  Ti1690  1  0.53685603  0.35420092  0.41751253  1.0
  Ti  Ti1691  1  0.53685603  0.47920092  0.41751253  1.0
  Ti  Ti1692  1  0.53685603  0.60420092  0.41751253  1.0
  Ti  Ti1693  1  0.53685603  0.72920092  0.41751253  1.0
  Ti  Ti1694  1  0.53685603  0.85420092  0.41751253  1.0
  Ti  Ti1695  1  0.53685603  0.97920092  0.41751253  1.0
  Ti  Ti1696  1  0.64796714  0.10420092  0.41751253  1.0
  Ti  Ti1697  1  0.64796714  0.22920092  0.41751253  1.0
  Ti  Ti1698  1  0.64796714  0.35420092  0.41751253  1.0
  Ti  Ti1699  1  0.64796714  0.47920092  0.41751253  1.0
  Ti  Ti1700  1  0.64796714  0.60420092  0.41751253  1.0
  Ti  Ti1701  1  0.64796714  0.72920092  0.41751253  1.0
  Ti  Ti1702  1  0.64796714  0.85420092  0.41751253  1.0
  Ti  Ti1703  1  0.64796714  0.97920092  0.41751253  1.0
  Ti  Ti1704  1  0.75907825  0.10420092  0.41751253  1.0
  Ti  Ti1705  1  0.75907825  0.22920092  0.41751253  1.0
  Ti  Ti1706  1  0.75907825  0.35420092  0.41751253  1.0
  Ti  Ti1707  1  0.75907825  0.47920092  0.41751253  1.0
  Ti  Ti1708  1  0.75907825  0.60420092  0.41751253  1.0
  Ti  Ti1709  1  0.75907825  0.72920092  0.41751253  1.0
  Ti  Ti1710  1  0.75907825  0.85420092  0.41751253  1.0
  Ti  Ti1711  1  0.75907825  0.97920092  0.41751253  1.0
  Ti  Ti1712  1  0.87018936  0.10420092  0.41751253  1.0
  Ti  Ti1713  1  0.87018936  0.22920092  0.41751253  1.0
  Ti  Ti1714  1  0.87018936  0.35420092  0.41751253  1.0
  Ti  Ti1715  1  0.87018936  0.47920092  0.41751253  1.0
  Ti  Ti1716  1  0.87018936  0.60420092  0.41751253  1.0
  Ti  Ti1717  1  0.87018936  0.72920092  0.41751253  1.0
  Ti  Ti1718  1  0.87018936  0.85420092  0.41751253  1.0
  Ti  Ti1719  1  0.87018936  0.97920092  0.41751253  1.0
  Ti  Ti1720  1  0.98130047  0.10420092  0.41751253  1.0
  Ti  Ti1721  1  0.98130047  0.22920092  0.41751253  1.0
  Ti  Ti1722  1  0.98130047  0.35420092  0.41751253  1.0
  Ti  Ti1723  1  0.98130047  0.47920092  0.41751253  1.0
  Ti  Ti1724  1  0.98130047  0.60420092  0.41751253  1.0
  Ti  Ti1725  1  0.98130047  0.72920092  0.41751253  1.0
  Ti  Ti1726  1  0.98130047  0.85420092  0.41751253  1.0
  Ti  Ti1727  1  0.98130047  0.97920092  0.41751253  1.0
  Ti  Ti1728  1  0.05044556  0.04170092  0.53486842  1.0
  Ti  Ti1729  1  0.05044556  0.16670092  0.53486842  1.0
  Ti  Ti1730  1  0.05044556  0.29170092  0.53486842  1.0
  Ti  Ti1731  1  0.05044556  0.41670092  0.53486842  1.0
  Ti  Ti1732  1  0.05044556  0.54170092  0.53486842  1.0
  Ti  Ti1733  1  0.05044556  0.66670092  0.53486842  1.0
  Ti  Ti1734  1  0.05044556  0.79170092  0.53486842  1.0
  Ti  Ti1735  1  0.05044556  0.91670092  0.53486842  1.0
  Ti  Ti1736  1  0.16155667  0.04170092  0.53486842  1.0
  Ti  Ti1737  1  0.16155667  0.16670092  0.53486842  1.0
  Ti  Ti1738  1  0.16155667  0.29170092  0.53486842  1.0
  Ti  Ti1739  1  0.16155667  0.41670092  0.53486842  1.0
  Ti  Ti1740  1  0.16155667  0.54170092  0.53486842  1.0
  Ti  Ti1741  1  0.16155667  0.66670092  0.53486842  1.0
  Ti  Ti1742  1  0.16155667  0.79170092  0.53486842  1.0
  Ti  Ti1743  1  0.16155667  0.91670092  0.53486842  1.0
  Ti  Ti1744  1  0.27266778  0.04170092  0.53486842  1.0
  Ti  Ti1745  1  0.27266778  0.16670092  0.53486842  1.0
  Ti  Ti1746  1  0.27266778  0.29170092  0.53486842  1.0
  Ti  Ti1747  1  0.27266778  0.41670092  0.53486842  1.0
  Ti  Ti1748  1  0.27266778  0.54170092  0.53486842  1.0
  Ti  Ti1749  1  0.27266778  0.66670092  0.53486842  1.0
  Ti  Ti1750  1  0.27266778  0.79170092  0.53486842  1.0
  Ti  Ti1751  1  0.27266778  0.91670092  0.53486842  1.0
  Ti  Ti1752  1  0.38377890  0.04170092  0.53486842  1.0
  Ti  Ti1753  1  0.38377890  0.16670092  0.53486842  1.0
  Ti  Ti1754  1  0.38377890  0.29170092  0.53486842  1.0
  Ti  Ti1755  1  0.38377890  0.41670092  0.53486842  1.0
  Ti  Ti1756  1  0.38377890  0.54170092  0.53486842  1.0
  Ti  Ti1757  1  0.38377890  0.66670092  0.53486842  1.0
  Ti  Ti1758  1  0.38377890  0.79170092  0.53486842  1.0
  Ti  Ti1759  1  0.38377890  0.91670092  0.53486842  1.0
  Ti  Ti1760  1  0.49489001  0.04170092  0.53486842  1.0
  Ti  Ti1761  1  0.49489001  0.16670092  0.53486842  1.0
  Ti  Ti1762  1  0.49489001  0.29170092  0.53486842  1.0
  Ti  Ti1763  1  0.49489001  0.41670092  0.53486842  1.0
  Ti  Ti1764  1  0.49489001  0.54170092  0.53486842  1.0
  Ti  Ti1765  1  0.49489001  0.66670092  0.53486842  1.0
  Ti  Ti1766  1  0.49489001  0.79170092  0.53486842  1.0
  Ti  Ti1767  1  0.49489001  0.91670092  0.53486842  1.0
  Ti  Ti1768  1  0.60600112  0.04170092  0.53486842  1.0
  Ti  Ti1769  1  0.60600112  0.16670092  0.53486842  1.0
  Ti  Ti1770  1  0.60600112  0.29170092  0.53486842  1.0
  Ti  Ti1771  1  0.60600112  0.41670092  0.53486842  1.0
  Ti  Ti1772  1  0.60600112  0.54170092  0.53486842  1.0
  Ti  Ti1773  1  0.60600112  0.66670092  0.53486842  1.0
  Ti  Ti1774  1  0.60600112  0.79170092  0.53486842  1.0
  Ti  Ti1775  1  0.60600112  0.91670092  0.53486842  1.0
  Ti  Ti1776  1  0.71711223  0.04170092  0.53486842  1.0
  Ti  Ti1777  1  0.71711223  0.16670092  0.53486842  1.0
  Ti  Ti1778  1  0.71711223  0.29170092  0.53486842  1.0
  Ti  Ti1779  1  0.71711223  0.41670092  0.53486842  1.0
  Ti  Ti1780  1  0.71711223  0.54170092  0.53486842  1.0
  Ti  Ti1781  1  0.71711223  0.66670092  0.53486842  1.0
  Ti  Ti1782  1  0.71711223  0.79170092  0.53486842  1.0
  Ti  Ti1783  1  0.71711223  0.91670092  0.53486842  1.0
  Ti  Ti1784  1  0.82822334  0.04170092  0.53486842  1.0
  Ti  Ti1785  1  0.82822334  0.16670092  0.53486842  1.0
  Ti  Ti1786  1  0.82822334  0.29170092  0.53486842  1.0
  Ti  Ti1787  1  0.82822334  0.41670092  0.53486842  1.0
  Ti  Ti1788  1  0.82822334  0.54170092  0.53486842  1.0
  Ti  Ti1789  1  0.82822334  0.66670092  0.53486842  1.0
  Ti  Ti1790  1  0.82822334  0.79170092  0.53486842  1.0
  Ti  Ti1791  1  0.82822334  0.91670092  0.53486842  1.0
  Ti  Ti1792  1  0.93933445  0.04170092  0.53486842  1.0
  Ti  Ti1793  1  0.93933445  0.16670092  0.53486842  1.0
  Ti  Ti1794  1  0.93933445  0.29170092  0.53486842  1.0
  Ti  Ti1795  1  0.93933445  0.41670092  0.53486842  1.0
  Ti  Ti1796  1  0.93933445  0.54170092  0.53486842  1.0
  Ti  Ti1797  1  0.93933445  0.66670092  0.53486842  1.0
  Ti  Ti1798  1  0.93933445  0.79170092  0.53486842  1.0
  Ti  Ti1799  1  0.93933445  0.91670092  0.53486842  1.0
  Ti  Ti1800  1  0.10335561  0.04170092  0.63010651  1.0
  Ti  Ti1801  1  0.10335561  0.16670092  0.63010651  1.0
  Ti  Ti1802  1  0.10335561  0.29170092  0.63010651  1.0
  Ti  Ti1803  1  0.10335561  0.41670092  0.63010651  1.0
  Ti  Ti1804  1  0.10335561  0.54170092  0.63010651  1.0
  Ti  Ti1805  1  0.10335561  0.66670092  0.63010651  1.0
  Ti  Ti1806  1  0.10335561  0.79170092  0.63010651  1.0
  Ti  Ti1807  1  0.10335561  0.91670092  0.63010651  1.0
  Ti  Ti1808  1  0.21446673  0.04170092  0.63010651  1.0
  Ti  Ti1809  1  0.21446673  0.16670092  0.63010651  1.0
  Ti  Ti1810  1  0.21446673  0.29170092  0.63010651  1.0
  Ti  Ti1811  1  0.21446673  0.41670092  0.63010651  1.0
  Ti  Ti1812  1  0.21446673  0.54170092  0.63010651  1.0
  Ti  Ti1813  1  0.21446673  0.66670092  0.63010651  1.0
  Ti  Ti1814  1  0.21446673  0.79170092  0.63010651  1.0
  Ti  Ti1815  1  0.21446673  0.91670092  0.63010651  1.0
  Ti  Ti1816  1  0.32557784  0.04170092  0.63010651  1.0
  Ti  Ti1817  1  0.32557784  0.16670092  0.63010651  1.0
  Ti  Ti1818  1  0.32557784  0.29170092  0.63010651  1.0
  Ti  Ti1819  1  0.32557784  0.41670092  0.63010651  1.0
  Ti  Ti1820  1  0.32557784  0.54170092  0.63010651  1.0
  Ti  Ti1821  1  0.32557784  0.66670092  0.63010651  1.0
  Ti  Ti1822  1  0.32557784  0.79170092  0.63010651  1.0
  Ti  Ti1823  1  0.32557784  0.91670092  0.63010651  1.0
  Ti  Ti1824  1  0.43668895  0.04170092  0.63010651  1.0
  Ti  Ti1825  1  0.43668895  0.16670092  0.63010651  1.0
  Ti  Ti1826  1  0.43668895  0.29170092  0.63010651  1.0
  Ti  Ti1827  1  0.43668895  0.41670092  0.63010651  1.0
  Ti  Ti1828  1  0.43668895  0.54170092  0.63010651  1.0
  Ti  Ti1829  1  0.43668895  0.66670092  0.63010651  1.0
  Ti  Ti1830  1  0.43668895  0.79170092  0.63010651  1.0
  Ti  Ti1831  1  0.43668895  0.91670092  0.63010651  1.0
  Ti  Ti1832  1  0.54780006  0.04170092  0.63010651  1.0
  Ti  Ti1833  1  0.54780006  0.16670092  0.63010651  1.0
  Ti  Ti1834  1  0.54780006  0.29170092  0.63010651  1.0
  Ti  Ti1835  1  0.54780006  0.41670092  0.63010651  1.0
  Ti  Ti1836  1  0.54780006  0.54170092  0.63010651  1.0
  Ti  Ti1837  1  0.54780006  0.66670092  0.63010651  1.0
  Ti  Ti1838  1  0.54780006  0.79170092  0.63010651  1.0
  Ti  Ti1839  1  0.54780006  0.91670092  0.63010651  1.0
  Ti  Ti1840  1  0.65891117  0.04170092  0.63010651  1.0
  Ti  Ti1841  1  0.65891117  0.16670092  0.63010651  1.0
  Ti  Ti1842  1  0.65891117  0.29170092  0.63010651  1.0
  Ti  Ti1843  1  0.65891117  0.41670092  0.63010651  1.0
  Ti  Ti1844  1  0.65891117  0.54170092  0.63010651  1.0
  Ti  Ti1845  1  0.65891117  0.66670092  0.63010651  1.0
  Ti  Ti1846  1  0.65891117  0.79170092  0.63010651  1.0
  Ti  Ti1847  1  0.65891117  0.91670092  0.63010651  1.0
  Ti  Ti1848  1  0.77002228  0.04170092  0.63010651  1.0
  Ti  Ti1849  1  0.77002228  0.16670092  0.63010651  1.0
  Ti  Ti1850  1  0.77002228  0.29170092  0.63010651  1.0
  Ti  Ti1851  1  0.77002228  0.41670092  0.63010651  1.0
  Ti  Ti1852  1  0.77002228  0.54170092  0.63010651  1.0
  Ti  Ti1853  1  0.77002228  0.66670092  0.63010651  1.0
  Ti  Ti1854  1  0.77002228  0.79170092  0.63010651  1.0
  Ti  Ti1855  1  0.77002228  0.91670092  0.63010651  1.0
  Ti  Ti1856  1  0.88113339  0.04170092  0.63010651  1.0
  Ti  Ti1857  1  0.88113339  0.16670092  0.63010651  1.0
  Ti  Ti1858  1  0.88113339  0.29170092  0.63010651  1.0
  Ti  Ti1859  1  0.88113339  0.41670092  0.63010651  1.0
  Ti  Ti1860  1  0.88113339  0.54170092  0.63010651  1.0
  Ti  Ti1861  1  0.88113339  0.66670092  0.63010651  1.0
  Ti  Ti1862  1  0.88113339  0.79170092  0.63010651  1.0
  Ti  Ti1863  1  0.88113339  0.91670092  0.63010651  1.0
  Ti  Ti1864  1  0.99224450  0.04170092  0.63010651  1.0
  Ti  Ti1865  1  0.99224450  0.16670092  0.63010651  1.0
  Ti  Ti1866  1  0.99224450  0.29170092  0.63010651  1.0
  Ti  Ti1867  1  0.99224450  0.41670092  0.63010651  1.0
  Ti  Ti1868  1  0.99224450  0.54170092  0.63010651  1.0
  Ti  Ti1869  1  0.99224450  0.66670092  0.63010651  1.0
  Ti  Ti1870  1  0.99224450  0.79170092  0.63010651  1.0
  Ti  Ti1871  1  0.99224450  0.91670092  0.63010651  1.0
  Ti  Ti1872  1  0.07690059  0.04170092  0.58248747  1.0
  Ti  Ti1873  1  0.07690059  0.16670092  0.58248747  1.0
  Ti  Ti1874  1  0.07690059  0.29170092  0.58248747  1.0
  Ti  Ti1875  1  0.07690059  0.41670092  0.58248747  1.0
  Ti  Ti1876  1  0.07690059  0.54170092  0.58248747  1.0
  Ti  Ti1877  1  0.07690059  0.66670092  0.58248747  1.0
  Ti  Ti1878  1  0.07690059  0.79170092  0.58248747  1.0
  Ti  Ti1879  1  0.07690059  0.91670092  0.58248747  1.0
  Ti  Ti1880  1  0.18801170  0.04170092  0.58248747  1.0
  Ti  Ti1881  1  0.18801170  0.16670092  0.58248747  1.0
  Ti  Ti1882  1  0.18801170  0.29170092  0.58248747  1.0
  Ti  Ti1883  1  0.18801170  0.41670092  0.58248747  1.0
  Ti  Ti1884  1  0.18801170  0.54170092  0.58248747  1.0
  Ti  Ti1885  1  0.18801170  0.66670092  0.58248747  1.0
  Ti  Ti1886  1  0.18801170  0.79170092  0.58248747  1.0
  Ti  Ti1887  1  0.18801170  0.91670092  0.58248747  1.0
  Ti  Ti1888  1  0.29912281  0.04170092  0.58248747  1.0
  Ti  Ti1889  1  0.29912281  0.16670092  0.58248747  1.0
  Ti  Ti1890  1  0.29912281  0.29170092  0.58248747  1.0
  Ti  Ti1891  1  0.29912281  0.41670092  0.58248747  1.0
  Ti  Ti1892  1  0.29912281  0.54170092  0.58248747  1.0
  Ti  Ti1893  1  0.29912281  0.66670092  0.58248747  1.0
  Ti  Ti1894  1  0.29912281  0.79170092  0.58248747  1.0
  Ti  Ti1895  1  0.29912281  0.91670092  0.58248747  1.0
  Ti  Ti1896  1  0.41023392  0.04170092  0.58248747  1.0
  Ti  Ti1897  1  0.41023392  0.16670092  0.58248747  1.0
  Ti  Ti1898  1  0.41023392  0.29170092  0.58248747  1.0
  Ti  Ti1899  1  0.41023392  0.41670092  0.58248747  1.0
  Ti  Ti1900  1  0.41023392  0.54170092  0.58248747  1.0
  Ti  Ti1901  1  0.41023392  0.66670092  0.58248747  1.0
  Ti  Ti1902  1  0.41023392  0.79170092  0.58248747  1.0
  Ti  Ti1903  1  0.41023392  0.91670092  0.58248747  1.0
  Ti  Ti1904  1  0.52134503  0.04170092  0.58248747  1.0
  Ti  Ti1905  1  0.52134503  0.16670092  0.58248747  1.0
  Ti  Ti1906  1  0.52134503  0.29170092  0.58248747  1.0
  Ti  Ti1907  1  0.52134503  0.41670092  0.58248747  1.0
  Ti  Ti1908  1  0.52134503  0.54170092  0.58248747  1.0
  Ti  Ti1909  1  0.52134503  0.66670092  0.58248747  1.0
  Ti  Ti1910  1  0.52134503  0.79170092  0.58248747  1.0
  Ti  Ti1911  1  0.52134503  0.91670092  0.58248747  1.0
  Ti  Ti1912  1  0.63245614  0.04170092  0.58248747  1.0
  Ti  Ti1913  1  0.63245614  0.16670092  0.58248747  1.0
  Ti  Ti1914  1  0.63245614  0.29170092  0.58248747  1.0
  Ti  Ti1915  1  0.63245614  0.41670092  0.58248747  1.0
  Ti  Ti1916  1  0.63245614  0.54170092  0.58248747  1.0
  Ti  Ti1917  1  0.63245614  0.66670092  0.58248747  1.0
  Ti  Ti1918  1  0.63245614  0.79170092  0.58248747  1.0
  Ti  Ti1919  1  0.63245614  0.91670092  0.58248747  1.0
  Ti  Ti1920  1  0.74356726  0.04170092  0.58248747  1.0
  Ti  Ti1921  1  0.74356726  0.16670092  0.58248747  1.0
  Ti  Ti1922  1  0.74356726  0.29170092  0.58248747  1.0
  Ti  Ti1923  1  0.74356726  0.41670092  0.58248747  1.0
  Ti  Ti1924  1  0.74356726  0.54170092  0.58248747  1.0
  Ti  Ti1925  1  0.74356726  0.66670092  0.58248747  1.0
  Ti  Ti1926  1  0.74356726  0.79170092  0.58248747  1.0
  Ti  Ti1927  1  0.74356726  0.91670092  0.58248747  1.0
  Ti  Ti1928  1  0.85467837  0.04170092  0.58248747  1.0
  Ti  Ti1929  1  0.85467837  0.16670092  0.58248747  1.0
  Ti  Ti1930  1  0.85467837  0.29170092  0.58248747  1.0
  Ti  Ti1931  1  0.85467837  0.41670092  0.58248747  1.0
  Ti  Ti1932  1  0.85467837  0.54170092  0.58248747  1.0
  Ti  Ti1933  1  0.85467837  0.66670092  0.58248747  1.0
  Ti  Ti1934  1  0.85467837  0.79170092  0.58248747  1.0
  Ti  Ti1935  1  0.85467837  0.91670092  0.58248747  1.0
  Ti  Ti1936  1  0.96578948  0.04170092  0.58248747  1.0
  Ti  Ti1937  1  0.96578948  0.16670092  0.58248747  1.0
  Ti  Ti1938  1  0.96578948  0.29170092  0.58248747  1.0
  Ti  Ti1939  1  0.96578948  0.41670092  0.58248747  1.0
  Ti  Ti1940  1  0.96578948  0.54170092  0.58248747  1.0
  Ti  Ti1941  1  0.96578948  0.66670092  0.58248747  1.0
  Ti  Ti1942  1  0.96578948  0.79170092  0.58248747  1.0
  Ti  Ti1943  1  0.96578948  0.91670092  0.58248747  1.0
  Ti  Ti1944  1  0.10299359  0.08329908  0.53656015  1.0
  Ti  Ti1945  1  0.10299359  0.20829908  0.53656015  1.0
  Ti  Ti1946  1  0.10299359  0.33329908  0.53656015  1.0
  Ti  Ti1947  1  0.10299359  0.45829908  0.53656015  1.0
  Ti  Ti1948  1  0.10299359  0.58329908  0.53656015  1.0
  Ti  Ti1949  1  0.10299359  0.70829908  0.53656015  1.0
  Ti  Ti1950  1  0.10299359  0.83329908  0.53656015  1.0
  Ti  Ti1951  1  0.10299359  0.95829908  0.53656015  1.0
  Ti  Ti1952  1  0.21410470  0.08329908  0.53656015  1.0
  Ti  Ti1953  1  0.21410470  0.20829908  0.53656015  1.0
  Ti  Ti1954  1  0.21410470  0.33329908  0.53656015  1.0
  Ti  Ti1955  1  0.21410470  0.45829908  0.53656015  1.0
  Ti  Ti1956  1  0.21410470  0.58329908  0.53656015  1.0
  Ti  Ti1957  1  0.21410470  0.70829908  0.53656015  1.0
  Ti  Ti1958  1  0.21410470  0.83329908  0.53656015  1.0
  Ti  Ti1959  1  0.21410470  0.95829908  0.53656015  1.0
  Ti  Ti1960  1  0.32521581  0.08329908  0.53656015  1.0
  Ti  Ti1961  1  0.32521581  0.20829908  0.53656015  1.0
  Ti  Ti1962  1  0.32521581  0.33329908  0.53656015  1.0
  Ti  Ti1963  1  0.32521581  0.45829908  0.53656015  1.0
  Ti  Ti1964  1  0.32521581  0.58329908  0.53656015  1.0
  Ti  Ti1965  1  0.32521581  0.70829908  0.53656015  1.0
  Ti  Ti1966  1  0.32521581  0.83329908  0.53656015  1.0
  Ti  Ti1967  1  0.32521581  0.95829908  0.53656015  1.0
  Ti  Ti1968  1  0.43632692  0.08329908  0.53656015  1.0
  Ti  Ti1969  1  0.43632692  0.20829908  0.53656015  1.0
  Ti  Ti1970  1  0.43632692  0.33329908  0.53656015  1.0
  Ti  Ti1971  1  0.43632692  0.45829908  0.53656015  1.0
  Ti  Ti1972  1  0.43632692  0.58329908  0.53656015  1.0
  Ti  Ti1973  1  0.43632692  0.70829908  0.53656015  1.0
  Ti  Ti1974  1  0.43632692  0.83329908  0.53656015  1.0
  Ti  Ti1975  1  0.43632692  0.95829908  0.53656015  1.0
  Ti  Ti1976  1  0.54743804  0.08329908  0.53656015  1.0
  Ti  Ti1977  1  0.54743804  0.20829908  0.53656015  1.0
  Ti  Ti1978  1  0.54743804  0.33329908  0.53656015  1.0
  Ti  Ti1979  1  0.54743804  0.45829908  0.53656015  1.0
  Ti  Ti1980  1  0.54743804  0.58329908  0.53656015  1.0
  Ti  Ti1981  1  0.54743804  0.70829908  0.53656015  1.0
  Ti  Ti1982  1  0.54743804  0.83329908  0.53656015  1.0
  Ti  Ti1983  1  0.54743804  0.95829908  0.53656015  1.0
  Ti  Ti1984  1  0.65854915  0.08329908  0.53656015  1.0
  Ti  Ti1985  1  0.65854915  0.20829908  0.53656015  1.0
  Ti  Ti1986  1  0.65854915  0.33329908  0.53656015  1.0
  Ti  Ti1987  1  0.65854915  0.45829908  0.53656015  1.0
  Ti  Ti1988  1  0.65854915  0.58329908  0.53656015  1.0
  Ti  Ti1989  1  0.65854915  0.70829908  0.53656015  1.0
  Ti  Ti1990  1  0.65854915  0.83329908  0.53656015  1.0
  Ti  Ti1991  1  0.65854915  0.95829908  0.53656015  1.0
  Ti  Ti1992  1  0.76966026  0.08329908  0.53656015  1.0
  Ti  Ti1993  1  0.76966026  0.20829908  0.53656015  1.0
  Ti  Ti1994  1  0.76966026  0.33329908  0.53656015  1.0
  Ti  Ti1995  1  0.76966026  0.45829908  0.53656015  1.0
  Ti  Ti1996  1  0.76966026  0.58329908  0.53656015  1.0
  Ti  Ti1997  1  0.76966026  0.70829908  0.53656015  1.0
  Ti  Ti1998  1  0.76966026  0.83329908  0.53656015  1.0
  Ti  Ti1999  1  0.76966026  0.95829908  0.53656015  1.0
  Ti  Ti2000  1  0.88077137  0.08329908  0.53656015  1.0
  Ti  Ti2001  1  0.88077137  0.20829908  0.53656015  1.0
  Ti  Ti2002  1  0.88077137  0.33329908  0.53656015  1.0
  Ti  Ti2003  1  0.88077137  0.45829908  0.53656015  1.0
  Ti  Ti2004  1  0.88077137  0.58329908  0.53656015  1.0
  Ti  Ti2005  1  0.88077137  0.70829908  0.53656015  1.0
  Ti  Ti2006  1  0.88077137  0.83329908  0.53656015  1.0
  Ti  Ti2007  1  0.88077137  0.95829908  0.53656015  1.0
  Ti  Ti2008  1  0.99188248  0.08329908  0.53656015  1.0
  Ti  Ti2009  1  0.99188248  0.20829908  0.53656015  1.0
  Ti  Ti2010  1  0.99188248  0.33329908  0.53656015  1.0
  Ti  Ti2011  1  0.99188248  0.45829908  0.53656015  1.0
  Ti  Ti2012  1  0.99188248  0.58329908  0.53656015  1.0
  Ti  Ti2013  1  0.99188248  0.70829908  0.53656015  1.0
  Ti  Ti2014  1  0.99188248  0.83329908  0.53656015  1.0
  Ti  Ti2015  1  0.99188248  0.95829908  0.53656015  1.0
  Ti  Ti2016  1  0.04479253  0.08329908  0.63179825  1.0
  Ti  Ti2017  1  0.04479253  0.20829908  0.63179825  1.0
  Ti  Ti2018  1  0.04479253  0.33329908  0.63179825  1.0
  Ti  Ti2019  1  0.04479253  0.45829908  0.63179825  1.0
  Ti  Ti2020  1  0.04479253  0.58329908  0.63179825  1.0
  Ti  Ti2021  1  0.04479253  0.70829908  0.63179825  1.0
  Ti  Ti2022  1  0.04479253  0.83329908  0.63179825  1.0
  Ti  Ti2023  1  0.04479253  0.95829908  0.63179825  1.0
  Ti  Ti2024  1  0.15590364  0.08329908  0.63179825  1.0
  Ti  Ti2025  1  0.15590364  0.20829908  0.63179825  1.0
  Ti  Ti2026  1  0.15590364  0.33329908  0.63179825  1.0
  Ti  Ti2027  1  0.15590364  0.45829908  0.63179825  1.0
  Ti  Ti2028  1  0.15590364  0.58329908  0.63179825  1.0
  Ti  Ti2029  1  0.15590364  0.70829908  0.63179825  1.0
  Ti  Ti2030  1  0.15590364  0.83329908  0.63179825  1.0
  Ti  Ti2031  1  0.15590364  0.95829908  0.63179825  1.0
  Ti  Ti2032  1  0.26701476  0.08329908  0.63179825  1.0
  Ti  Ti2033  1  0.26701476  0.20829908  0.63179825  1.0
  Ti  Ti2034  1  0.26701476  0.33329908  0.63179825  1.0
  Ti  Ti2035  1  0.26701476  0.45829908  0.63179825  1.0
  Ti  Ti2036  1  0.26701476  0.58329908  0.63179825  1.0
  Ti  Ti2037  1  0.26701476  0.70829908  0.63179825  1.0
  Ti  Ti2038  1  0.26701476  0.83329908  0.63179825  1.0
  Ti  Ti2039  1  0.26701476  0.95829908  0.63179825  1.0
  Ti  Ti2040  1  0.37812587  0.08329908  0.63179825  1.0
  Ti  Ti2041  1  0.37812587  0.20829908  0.63179825  1.0
  Ti  Ti2042  1  0.37812587  0.33329908  0.63179825  1.0
  Ti  Ti2043  1  0.37812587  0.45829908  0.63179825  1.0
  Ti  Ti2044  1  0.37812587  0.58329908  0.63179825  1.0
  Ti  Ti2045  1  0.37812587  0.70829908  0.63179825  1.0
  Ti  Ti2046  1  0.37812587  0.83329908  0.63179825  1.0
  Ti  Ti2047  1  0.37812587  0.95829908  0.63179825  1.0
  Ti  Ti2048  1  0.48923698  0.08329908  0.63179825  1.0
  Ti  Ti2049  1  0.48923698  0.20829908  0.63179825  1.0
  Ti  Ti2050  1  0.48923698  0.33329908  0.63179825  1.0
  Ti  Ti2051  1  0.48923698  0.45829908  0.63179825  1.0
  Ti  Ti2052  1  0.48923698  0.58329908  0.63179825  1.0
  Ti  Ti2053  1  0.48923698  0.70829908  0.63179825  1.0
  Ti  Ti2054  1  0.48923698  0.83329908  0.63179825  1.0
  Ti  Ti2055  1  0.48923698  0.95829908  0.63179825  1.0
  Ti  Ti2056  1  0.60034809  0.08329908  0.63179825  1.0
  Ti  Ti2057  1  0.60034809  0.20829908  0.63179825  1.0
  Ti  Ti2058  1  0.60034809  0.33329908  0.63179825  1.0
  Ti  Ti2059  1  0.60034809  0.45829908  0.63179825  1.0
  Ti  Ti2060  1  0.60034809  0.58329908  0.63179825  1.0
  Ti  Ti2061  1  0.60034809  0.70829908  0.63179825  1.0
  Ti  Ti2062  1  0.60034809  0.83329908  0.63179825  1.0
  Ti  Ti2063  1  0.60034809  0.95829908  0.63179825  1.0
  Ti  Ti2064  1  0.71145920  0.08329908  0.63179825  1.0
  Ti  Ti2065  1  0.71145920  0.20829908  0.63179825  1.0
  Ti  Ti2066  1  0.71145920  0.33329908  0.63179825  1.0
  Ti  Ti2067  1  0.71145920  0.45829908  0.63179825  1.0
  Ti  Ti2068  1  0.71145920  0.58329908  0.63179825  1.0
  Ti  Ti2069  1  0.71145920  0.70829908  0.63179825  1.0
  Ti  Ti2070  1  0.71145920  0.83329908  0.63179825  1.0
  Ti  Ti2071  1  0.71145920  0.95829908  0.63179825  1.0
  Ti  Ti2072  1  0.82257031  0.08329908  0.63179825  1.0
  Ti  Ti2073  1  0.82257031  0.20829908  0.63179825  1.0
  Ti  Ti2074  1  0.82257031  0.33329908  0.63179825  1.0
  Ti  Ti2075  1  0.82257031  0.45829908  0.63179825  1.0
  Ti  Ti2076  1  0.82257031  0.58329908  0.63179825  1.0
  Ti  Ti2077  1  0.82257031  0.70829908  0.63179825  1.0
  Ti  Ti2078  1  0.82257031  0.83329908  0.63179825  1.0
  Ti  Ti2079  1  0.82257031  0.95829908  0.63179825  1.0
  Ti  Ti2080  1  0.93368142  0.08329908  0.63179825  1.0
  Ti  Ti2081  1  0.93368142  0.20829908  0.63179825  1.0
  Ti  Ti2082  1  0.93368142  0.33329908  0.63179825  1.0
  Ti  Ti2083  1  0.93368142  0.45829908  0.63179825  1.0
  Ti  Ti2084  1  0.93368142  0.58329908  0.63179825  1.0
  Ti  Ti2085  1  0.93368142  0.70829908  0.63179825  1.0
  Ti  Ti2086  1  0.93368142  0.83329908  0.63179825  1.0
  Ti  Ti2087  1  0.93368142  0.95829908  0.63179825  1.0
  Ti  Ti2088  1  0.01833751  0.08329908  0.58417920  1.0
  Ti  Ti2089  1  0.01833751  0.20829908  0.58417920  1.0
  Ti  Ti2090  1  0.01833751  0.33329908  0.58417920  1.0
  Ti  Ti2091  1  0.01833751  0.45829908  0.58417920  1.0
  Ti  Ti2092  1  0.01833751  0.58329908  0.58417920  1.0
  Ti  Ti2093  1  0.01833751  0.70829908  0.58417920  1.0
  Ti  Ti2094  1  0.01833751  0.83329908  0.58417920  1.0
  Ti  Ti2095  1  0.01833751  0.95829908  0.58417920  1.0
  Ti  Ti2096  1  0.12944862  0.08329908  0.58417920  1.0
  Ti  Ti2097  1  0.12944862  0.20829908  0.58417920  1.0
  Ti  Ti2098  1  0.12944862  0.33329908  0.58417920  1.0
  Ti  Ti2099  1  0.12944862  0.45829908  0.58417920  1.0
  Ti  Ti2100  1  0.12944862  0.58329908  0.58417920  1.0
  Ti  Ti2101  1  0.12944862  0.70829908  0.58417920  1.0
  Ti  Ti2102  1  0.12944862  0.83329908  0.58417920  1.0
  Ti  Ti2103  1  0.12944862  0.95829908  0.58417920  1.0
  Ti  Ti2104  1  0.24055973  0.08329908  0.58417920  1.0
  Ti  Ti2105  1  0.24055973  0.20829908  0.58417920  1.0
  Ti  Ti2106  1  0.24055973  0.33329908  0.58417920  1.0
  Ti  Ti2107  1  0.24055973  0.45829908  0.58417920  1.0
  Ti  Ti2108  1  0.24055973  0.58329908  0.58417920  1.0
  Ti  Ti2109  1  0.24055973  0.70829908  0.58417920  1.0
  Ti  Ti2110  1  0.24055973  0.83329908  0.58417920  1.0
  Ti  Ti2111  1  0.24055973  0.95829908  0.58417920  1.0
  Ti  Ti2112  1  0.35167084  0.08329908  0.58417920  1.0
  Ti  Ti2113  1  0.35167084  0.20829908  0.58417920  1.0
  Ti  Ti2114  1  0.35167084  0.33329908  0.58417920  1.0
  Ti  Ti2115  1  0.35167084  0.45829908  0.58417920  1.0
  Ti  Ti2116  1  0.35167084  0.58329908  0.58417920  1.0
  Ti  Ti2117  1  0.35167084  0.70829908  0.58417920  1.0
  Ti  Ti2118  1  0.35167084  0.83329908  0.58417920  1.0
  Ti  Ti2119  1  0.35167084  0.95829908  0.58417920  1.0
  Ti  Ti2120  1  0.46278195  0.08329908  0.58417920  1.0
  Ti  Ti2121  1  0.46278195  0.20829908  0.58417920  1.0
  Ti  Ti2122  1  0.46278195  0.33329908  0.58417920  1.0
  Ti  Ti2123  1  0.46278195  0.45829908  0.58417920  1.0
  Ti  Ti2124  1  0.46278195  0.58329908  0.58417920  1.0
  Ti  Ti2125  1  0.46278195  0.70829908  0.58417920  1.0
  Ti  Ti2126  1  0.46278195  0.83329908  0.58417920  1.0
  Ti  Ti2127  1  0.46278195  0.95829908  0.58417920  1.0
  Ti  Ti2128  1  0.57389306  0.08329908  0.58417920  1.0
  Ti  Ti2129  1  0.57389306  0.20829908  0.58417920  1.0
  Ti  Ti2130  1  0.57389306  0.33329908  0.58417920  1.0
  Ti  Ti2131  1  0.57389306  0.45829908  0.58417920  1.0
  Ti  Ti2132  1  0.57389306  0.58329908  0.58417920  1.0
  Ti  Ti2133  1  0.57389306  0.70829908  0.58417920  1.0
  Ti  Ti2134  1  0.57389306  0.83329908  0.58417920  1.0
  Ti  Ti2135  1  0.57389306  0.95829908  0.58417920  1.0
  Ti  Ti2136  1  0.68500417  0.08329908  0.58417920  1.0
  Ti  Ti2137  1  0.68500417  0.20829908  0.58417920  1.0
  Ti  Ti2138  1  0.68500417  0.33329908  0.58417920  1.0
  Ti  Ti2139  1  0.68500417  0.45829908  0.58417920  1.0
  Ti  Ti2140  1  0.68500417  0.58329908  0.58417920  1.0
  Ti  Ti2141  1  0.68500417  0.70829908  0.58417920  1.0
  Ti  Ti2142  1  0.68500417  0.83329908  0.58417920  1.0
  Ti  Ti2143  1  0.68500417  0.95829908  0.58417920  1.0
  Ti  Ti2144  1  0.79611528  0.08329908  0.58417920  1.0
  Ti  Ti2145  1  0.79611528  0.20829908  0.58417920  1.0
  Ti  Ti2146  1  0.79611528  0.33329908  0.58417920  1.0
  Ti  Ti2147  1  0.79611528  0.45829908  0.58417920  1.0
  Ti  Ti2148  1  0.79611528  0.58329908  0.58417920  1.0
  Ti  Ti2149  1  0.79611528  0.70829908  0.58417920  1.0
  Ti  Ti2150  1  0.79611528  0.83329908  0.58417920  1.0
  Ti  Ti2151  1  0.79611528  0.95829908  0.58417920  1.0
  Ti  Ti2152  1  0.90722640  0.08329908  0.58417920  1.0
  Ti  Ti2153  1  0.90722640  0.20829908  0.58417920  1.0
  Ti  Ti2154  1  0.90722640  0.33329908  0.58417920  1.0
  Ti  Ti2155  1  0.90722640  0.45829908  0.58417920  1.0
  Ti  Ti2156  1  0.90722640  0.58329908  0.58417920  1.0
  Ti  Ti2157  1  0.90722640  0.70829908  0.58417920  1.0
  Ti  Ti2158  1  0.90722640  0.83329908  0.58417920  1.0
  Ti  Ti2159  1  0.90722640  0.95829908  0.58417920  1.0
  Ti  Ti2160  1  0.00811752  0.02079908  0.55867794  1.0
  Ti  Ti2161  1  0.00811752  0.14579908  0.55867794  1.0
  Ti  Ti2162  1  0.00811752  0.27079908  0.55867794  1.0
  Ti  Ti2163  1  0.00811752  0.39579908  0.55867794  1.0
  Ti  Ti2164  1  0.00811752  0.52079908  0.55867794  1.0
  Ti  Ti2165  1  0.00811752  0.64579908  0.55867794  1.0
  Ti  Ti2166  1  0.00811752  0.77079908  0.55867794  1.0
  Ti  Ti2167  1  0.00811752  0.89579908  0.55867794  1.0
  Ti  Ti2168  1  0.11922863  0.02079908  0.55867794  1.0
  Ti  Ti2169  1  0.11922863  0.14579908  0.55867794  1.0
  Ti  Ti2170  1  0.11922863  0.27079908  0.55867794  1.0
  Ti  Ti2171  1  0.11922863  0.39579908  0.55867794  1.0
  Ti  Ti2172  1  0.11922863  0.52079908  0.55867794  1.0
  Ti  Ti2173  1  0.11922863  0.64579908  0.55867794  1.0
  Ti  Ti2174  1  0.11922863  0.77079908  0.55867794  1.0
  Ti  Ti2175  1  0.11922863  0.89579908  0.55867794  1.0
  Ti  Ti2176  1  0.23033974  0.02079908  0.55867794  1.0
  Ti  Ti2177  1  0.23033974  0.14579908  0.55867794  1.0
  Ti  Ti2178  1  0.23033974  0.27079908  0.55867794  1.0
  Ti  Ti2179  1  0.23033974  0.39579908  0.55867794  1.0
  Ti  Ti2180  1  0.23033974  0.52079908  0.55867794  1.0
  Ti  Ti2181  1  0.23033974  0.64579908  0.55867794  1.0
  Ti  Ti2182  1  0.23033974  0.77079908  0.55867794  1.0
  Ti  Ti2183  1  0.23033974  0.89579908  0.55867794  1.0
  Ti  Ti2184  1  0.34145085  0.02079908  0.55867794  1.0
  Ti  Ti2185  1  0.34145085  0.14579908  0.55867794  1.0
  Ti  Ti2186  1  0.34145085  0.27079908  0.55867794  1.0
  Ti  Ti2187  1  0.34145085  0.39579908  0.55867794  1.0
  Ti  Ti2188  1  0.34145085  0.52079908  0.55867794  1.0
  Ti  Ti2189  1  0.34145085  0.64579908  0.55867794  1.0
  Ti  Ti2190  1  0.34145085  0.77079908  0.55867794  1.0
  Ti  Ti2191  1  0.34145085  0.89579908  0.55867794  1.0
  Ti  Ti2192  1  0.45256196  0.02079908  0.55867794  1.0
  Ti  Ti2193  1  0.45256196  0.14579908  0.55867794  1.0
  Ti  Ti2194  1  0.45256196  0.27079908  0.55867794  1.0
  Ti  Ti2195  1  0.45256196  0.39579908  0.55867794  1.0
  Ti  Ti2196  1  0.45256196  0.52079908  0.55867794  1.0
  Ti  Ti2197  1  0.45256196  0.64579908  0.55867794  1.0
  Ti  Ti2198  1  0.45256196  0.77079908  0.55867794  1.0
  Ti  Ti2199  1  0.45256196  0.89579908  0.55867794  1.0
  Ti  Ti2200  1  0.56367308  0.02079908  0.55867794  1.0
  Ti  Ti2201  1  0.56367308  0.14579908  0.55867794  1.0
  Ti  Ti2202  1  0.56367308  0.27079908  0.55867794  1.0
  Ti  Ti2203  1  0.56367308  0.39579908  0.55867794  1.0
  Ti  Ti2204  1  0.56367308  0.52079908  0.55867794  1.0
  Ti  Ti2205  1  0.56367308  0.64579908  0.55867794  1.0
  Ti  Ti2206  1  0.56367308  0.77079908  0.55867794  1.0
  Ti  Ti2207  1  0.56367308  0.89579908  0.55867794  1.0
  Ti  Ti2208  1  0.67478419  0.02079908  0.55867794  1.0
  Ti  Ti2209  1  0.67478419  0.14579908  0.55867794  1.0
  Ti  Ti2210  1  0.67478419  0.27079908  0.55867794  1.0
  Ti  Ti2211  1  0.67478419  0.39579908  0.55867794  1.0
  Ti  Ti2212  1  0.67478419  0.52079908  0.55867794  1.0
  Ti  Ti2213  1  0.67478419  0.64579908  0.55867794  1.0
  Ti  Ti2214  1  0.67478419  0.77079908  0.55867794  1.0
  Ti  Ti2215  1  0.67478419  0.89579908  0.55867794  1.0
  Ti  Ti2216  1  0.78589530  0.02079908  0.55867794  1.0
  Ti  Ti2217  1  0.78589530  0.14579908  0.55867794  1.0
  Ti  Ti2218  1  0.78589530  0.27079908  0.55867794  1.0
  Ti  Ti2219  1  0.78589530  0.39579908  0.55867794  1.0
  Ti  Ti2220  1  0.78589530  0.52079908  0.55867794  1.0
  Ti  Ti2221  1  0.78589530  0.64579908  0.55867794  1.0
  Ti  Ti2222  1  0.78589530  0.77079908  0.55867794  1.0
  Ti  Ti2223  1  0.78589530  0.89579908  0.55867794  1.0
  Ti  Ti2224  1  0.89700641  0.02079908  0.55867794  1.0
  Ti  Ti2225  1  0.89700641  0.14579908  0.55867794  1.0
  Ti  Ti2226  1  0.89700641  0.27079908  0.55867794  1.0
  Ti  Ti2227  1  0.89700641  0.39579908  0.55867794  1.0
  Ti  Ti2228  1  0.89700641  0.52079908  0.55867794  1.0
  Ti  Ti2229  1  0.89700641  0.64579908  0.55867794  1.0
  Ti  Ti2230  1  0.89700641  0.77079908  0.55867794  1.0
  Ti  Ti2231  1  0.89700641  0.89579908  0.55867794  1.0
  Ti  Ti2232  1  0.09277360  0.02079908  0.51105890  1.0
  Ti  Ti2233  1  0.09277360  0.14579908  0.51105890  1.0
  Ti  Ti2234  1  0.09277360  0.27079908  0.51105890  1.0
  Ti  Ti2235  1  0.09277360  0.39579908  0.51105890  1.0
  Ti  Ti2236  1  0.09277360  0.52079908  0.51105890  1.0
  Ti  Ti2237  1  0.09277360  0.64579908  0.51105890  1.0
  Ti  Ti2238  1  0.09277360  0.77079908  0.51105890  1.0
  Ti  Ti2239  1  0.09277360  0.89579908  0.51105890  1.0
  Ti  Ti2240  1  0.20388472  0.02079908  0.51105890  1.0
  Ti  Ti2241  1  0.20388472  0.14579908  0.51105890  1.0
  Ti  Ti2242  1  0.20388472  0.27079908  0.51105890  1.0
  Ti  Ti2243  1  0.20388472  0.39579908  0.51105890  1.0
  Ti  Ti2244  1  0.20388472  0.52079908  0.51105890  1.0
  Ti  Ti2245  1  0.20388472  0.64579908  0.51105890  1.0
  Ti  Ti2246  1  0.20388472  0.77079908  0.51105890  1.0
  Ti  Ti2247  1  0.20388472  0.89579908  0.51105890  1.0
  Ti  Ti2248  1  0.31499583  0.02079908  0.51105890  1.0
  Ti  Ti2249  1  0.31499583  0.14579908  0.51105890  1.0
  Ti  Ti2250  1  0.31499583  0.27079908  0.51105890  1.0
  Ti  Ti2251  1  0.31499583  0.39579908  0.51105890  1.0
  Ti  Ti2252  1  0.31499583  0.52079908  0.51105890  1.0
  Ti  Ti2253  1  0.31499583  0.64579908  0.51105890  1.0
  Ti  Ti2254  1  0.31499583  0.77079908  0.51105890  1.0
  Ti  Ti2255  1  0.31499583  0.89579908  0.51105890  1.0
  Ti  Ti2256  1  0.42610694  0.02079908  0.51105890  1.0
  Ti  Ti2257  1  0.42610694  0.14579908  0.51105890  1.0
  Ti  Ti2258  1  0.42610694  0.27079908  0.51105890  1.0
  Ti  Ti2259  1  0.42610694  0.39579908  0.51105890  1.0
  Ti  Ti2260  1  0.42610694  0.52079908  0.51105890  1.0
  Ti  Ti2261  1  0.42610694  0.64579908  0.51105890  1.0
  Ti  Ti2262  1  0.42610694  0.77079908  0.51105890  1.0
  Ti  Ti2263  1  0.42610694  0.89579908  0.51105890  1.0
  Ti  Ti2264  1  0.53721805  0.02079908  0.51105890  1.0
  Ti  Ti2265  1  0.53721805  0.14579908  0.51105890  1.0
  Ti  Ti2266  1  0.53721805  0.27079908  0.51105890  1.0
  Ti  Ti2267  1  0.53721805  0.39579908  0.51105890  1.0
  Ti  Ti2268  1  0.53721805  0.52079908  0.51105890  1.0
  Ti  Ti2269  1  0.53721805  0.64579908  0.51105890  1.0
  Ti  Ti2270  1  0.53721805  0.77079908  0.51105890  1.0
  Ti  Ti2271  1  0.53721805  0.89579908  0.51105890  1.0
  Ti  Ti2272  1  0.64832916  0.02079908  0.51105890  1.0
  Ti  Ti2273  1  0.64832916  0.14579908  0.51105890  1.0
  Ti  Ti2274  1  0.64832916  0.27079908  0.51105890  1.0
  Ti  Ti2275  1  0.64832916  0.39579908  0.51105890  1.0
  Ti  Ti2276  1  0.64832916  0.52079908  0.51105890  1.0
  Ti  Ti2277  1  0.64832916  0.64579908  0.51105890  1.0
  Ti  Ti2278  1  0.64832916  0.77079908  0.51105890  1.0
  Ti  Ti2279  1  0.64832916  0.89579908  0.51105890  1.0
  Ti  Ti2280  1  0.75944027  0.02079908  0.51105890  1.0
  Ti  Ti2281  1  0.75944027  0.14579908  0.51105890  1.0
  Ti  Ti2282  1  0.75944027  0.27079908  0.51105890  1.0
  Ti  Ti2283  1  0.75944027  0.39579908  0.51105890  1.0
  Ti  Ti2284  1  0.75944027  0.52079908  0.51105890  1.0
  Ti  Ti2285  1  0.75944027  0.64579908  0.51105890  1.0
  Ti  Ti2286  1  0.75944027  0.77079908  0.51105890  1.0
  Ti  Ti2287  1  0.75944027  0.89579908  0.51105890  1.0
  Ti  Ti2288  1  0.87055138  0.02079908  0.51105890  1.0
  Ti  Ti2289  1  0.87055138  0.14579908  0.51105890  1.0
  Ti  Ti2290  1  0.87055138  0.27079908  0.51105890  1.0
  Ti  Ti2291  1  0.87055138  0.39579908  0.51105890  1.0
  Ti  Ti2292  1  0.87055138  0.52079908  0.51105890  1.0
  Ti  Ti2293  1  0.87055138  0.64579908  0.51105890  1.0
  Ti  Ti2294  1  0.87055138  0.77079908  0.51105890  1.0
  Ti  Ti2295  1  0.87055138  0.89579908  0.51105890  1.0
  Ti  Ti2296  1  0.98166249  0.02079908  0.51105890  1.0
  Ti  Ti2297  1  0.98166249  0.14579908  0.51105890  1.0
  Ti  Ti2298  1  0.98166249  0.27079908  0.51105890  1.0
  Ti  Ti2299  1  0.98166249  0.39579908  0.51105890  1.0
  Ti  Ti2300  1  0.98166249  0.52079908  0.51105890  1.0
  Ti  Ti2301  1  0.98166249  0.64579908  0.51105890  1.0
  Ti  Ti2302  1  0.98166249  0.77079908  0.51105890  1.0
  Ti  Ti2303  1  0.98166249  0.89579908  0.51105890  1.0
  Ti  Ti2304  1  0.03457255  0.02079908  0.60629699  1.0
  Ti  Ti2305  1  0.03457255  0.14579908  0.60629699  1.0
  Ti  Ti2306  1  0.03457255  0.27079908  0.60629699  1.0
  Ti  Ti2307  1  0.03457255  0.39579908  0.60629699  1.0
  Ti  Ti2308  1  0.03457255  0.52079908  0.60629699  1.0
  Ti  Ti2309  1  0.03457255  0.64579908  0.60629699  1.0
  Ti  Ti2310  1  0.03457255  0.77079908  0.60629699  1.0
  Ti  Ti2311  1  0.03457255  0.89579908  0.60629699  1.0
  Ti  Ti2312  1  0.14568366  0.02079908  0.60629699  1.0
  Ti  Ti2313  1  0.14568366  0.14579908  0.60629699  1.0
  Ti  Ti2314  1  0.14568366  0.27079908  0.60629699  1.0
  Ti  Ti2315  1  0.14568366  0.39579908  0.60629699  1.0
  Ti  Ti2316  1  0.14568366  0.52079908  0.60629699  1.0
  Ti  Ti2317  1  0.14568366  0.64579908  0.60629699  1.0
  Ti  Ti2318  1  0.14568366  0.77079908  0.60629699  1.0
  Ti  Ti2319  1  0.14568366  0.89579908  0.60629699  1.0
  Ti  Ti2320  1  0.25679477  0.02079908  0.60629699  1.0
  Ti  Ti2321  1  0.25679477  0.14579908  0.60629699  1.0
  Ti  Ti2322  1  0.25679477  0.27079908  0.60629699  1.0
  Ti  Ti2323  1  0.25679477  0.39579908  0.60629699  1.0
  Ti  Ti2324  1  0.25679477  0.52079908  0.60629699  1.0
  Ti  Ti2325  1  0.25679477  0.64579908  0.60629699  1.0
  Ti  Ti2326  1  0.25679477  0.77079908  0.60629699  1.0
  Ti  Ti2327  1  0.25679477  0.89579908  0.60629699  1.0
  Ti  Ti2328  1  0.36790588  0.02079908  0.60629699  1.0
  Ti  Ti2329  1  0.36790588  0.14579908  0.60629699  1.0
  Ti  Ti2330  1  0.36790588  0.27079908  0.60629699  1.0
  Ti  Ti2331  1  0.36790588  0.39579908  0.60629699  1.0
  Ti  Ti2332  1  0.36790588  0.52079908  0.60629699  1.0
  Ti  Ti2333  1  0.36790588  0.64579908  0.60629699  1.0
  Ti  Ti2334  1  0.36790588  0.77079908  0.60629699  1.0
  Ti  Ti2335  1  0.36790588  0.89579908  0.60629699  1.0
  Ti  Ti2336  1  0.47901699  0.02079908  0.60629699  1.0
  Ti  Ti2337  1  0.47901699  0.14579908  0.60629699  1.0
  Ti  Ti2338  1  0.47901699  0.27079908  0.60629699  1.0
  Ti  Ti2339  1  0.47901699  0.39579908  0.60629699  1.0
  Ti  Ti2340  1  0.47901699  0.52079908  0.60629699  1.0
  Ti  Ti2341  1  0.47901699  0.64579908  0.60629699  1.0
  Ti  Ti2342  1  0.47901699  0.77079908  0.60629699  1.0
  Ti  Ti2343  1  0.47901699  0.89579908  0.60629699  1.0
  Ti  Ti2344  1  0.59012810  0.02079908  0.60629699  1.0
  Ti  Ti2345  1  0.59012810  0.14579908  0.60629699  1.0
  Ti  Ti2346  1  0.59012810  0.27079908  0.60629699  1.0
  Ti  Ti2347  1  0.59012810  0.39579908  0.60629699  1.0
  Ti  Ti2348  1  0.59012810  0.52079908  0.60629699  1.0
  Ti  Ti2349  1  0.59012810  0.64579908  0.60629699  1.0
  Ti  Ti2350  1  0.59012810  0.77079908  0.60629699  1.0
  Ti  Ti2351  1  0.59012810  0.89579908  0.60629699  1.0
  Ti  Ti2352  1  0.70123921  0.02079908  0.60629699  1.0
  Ti  Ti2353  1  0.70123921  0.14579908  0.60629699  1.0
  Ti  Ti2354  1  0.70123921  0.27079908  0.60629699  1.0
  Ti  Ti2355  1  0.70123921  0.39579908  0.60629699  1.0
  Ti  Ti2356  1  0.70123921  0.52079908  0.60629699  1.0
  Ti  Ti2357  1  0.70123921  0.64579908  0.60629699  1.0
  Ti  Ti2358  1  0.70123921  0.77079908  0.60629699  1.0
  Ti  Ti2359  1  0.70123921  0.89579908  0.60629699  1.0
  Ti  Ti2360  1  0.81235032  0.02079908  0.60629699  1.0
  Ti  Ti2361  1  0.81235032  0.14579908  0.60629699  1.0
  Ti  Ti2362  1  0.81235032  0.27079908  0.60629699  1.0
  Ti  Ti2363  1  0.81235032  0.39579908  0.60629699  1.0
  Ti  Ti2364  1  0.81235032  0.52079908  0.60629699  1.0
  Ti  Ti2365  1  0.81235032  0.64579908  0.60629699  1.0
  Ti  Ti2366  1  0.81235032  0.77079908  0.60629699  1.0
  Ti  Ti2367  1  0.81235032  0.89579908  0.60629699  1.0
  Ti  Ti2368  1  0.92346143  0.02079908  0.60629699  1.0
  Ti  Ti2369  1  0.92346143  0.14579908  0.60629699  1.0
  Ti  Ti2370  1  0.92346143  0.27079908  0.60629699  1.0
  Ti  Ti2371  1  0.92346143  0.39579908  0.60629699  1.0
  Ti  Ti2372  1  0.92346143  0.52079908  0.60629699  1.0
  Ti  Ti2373  1  0.92346143  0.64579908  0.60629699  1.0
  Ti  Ti2374  1  0.92346143  0.77079908  0.60629699  1.0
  Ti  Ti2375  1  0.92346143  0.89579908  0.60629699  1.0
  Ti  Ti2376  1  0.03421052  0.10420092  0.51275063  1.0
  Ti  Ti2377  1  0.03421052  0.22920092  0.51275063  1.0
  Ti  Ti2378  1  0.03421052  0.35420092  0.51275063  1.0
  Ti  Ti2379  1  0.03421052  0.47920092  0.51275063  1.0
  Ti  Ti2380  1  0.03421052  0.60420092  0.51275063  1.0
  Ti  Ti2381  1  0.03421052  0.72920092  0.51275063  1.0
  Ti  Ti2382  1  0.03421052  0.85420092  0.51275063  1.0
  Ti  Ti2383  1  0.03421052  0.97920092  0.51275063  1.0
  Ti  Ti2384  1  0.14532163  0.10420092  0.51275063  1.0
  Ti  Ti2385  1  0.14532163  0.22920092  0.51275063  1.0
  Ti  Ti2386  1  0.14532163  0.35420092  0.51275063  1.0
  Ti  Ti2387  1  0.14532163  0.47920092  0.51275063  1.0
  Ti  Ti2388  1  0.14532163  0.60420092  0.51275063  1.0
  Ti  Ti2389  1  0.14532163  0.72920092  0.51275063  1.0
  Ti  Ti2390  1  0.14532163  0.85420092  0.51275063  1.0
  Ti  Ti2391  1  0.14532163  0.97920092  0.51275063  1.0
  Ti  Ti2392  1  0.25643274  0.10420092  0.51275063  1.0
  Ti  Ti2393  1  0.25643274  0.22920092  0.51275063  1.0
  Ti  Ti2394  1  0.25643274  0.35420092  0.51275063  1.0
  Ti  Ti2395  1  0.25643274  0.47920092  0.51275063  1.0
  Ti  Ti2396  1  0.25643274  0.60420092  0.51275063  1.0
  Ti  Ti2397  1  0.25643274  0.72920092  0.51275063  1.0
  Ti  Ti2398  1  0.25643274  0.85420092  0.51275063  1.0
  Ti  Ti2399  1  0.25643274  0.97920092  0.51275063  1.0
  Ti  Ti2400  1  0.36754386  0.10420092  0.51275063  1.0
  Ti  Ti2401  1  0.36754386  0.22920092  0.51275063  1.0
  Ti  Ti2402  1  0.36754386  0.35420092  0.51275063  1.0
  Ti  Ti2403  1  0.36754386  0.47920092  0.51275063  1.0
  Ti  Ti2404  1  0.36754386  0.60420092  0.51275063  1.0
  Ti  Ti2405  1  0.36754386  0.72920092  0.51275063  1.0
  Ti  Ti2406  1  0.36754386  0.85420092  0.51275063  1.0
  Ti  Ti2407  1  0.36754386  0.97920092  0.51275063  1.0
  Ti  Ti2408  1  0.47865497  0.10420092  0.51275063  1.0
  Ti  Ti2409  1  0.47865497  0.22920092  0.51275063  1.0
  Ti  Ti2410  1  0.47865497  0.35420092  0.51275063  1.0
  Ti  Ti2411  1  0.47865497  0.47920092  0.51275063  1.0
  Ti  Ti2412  1  0.47865497  0.60420092  0.51275063  1.0
  Ti  Ti2413  1  0.47865497  0.72920092  0.51275063  1.0
  Ti  Ti2414  1  0.47865497  0.85420092  0.51275063  1.0
  Ti  Ti2415  1  0.47865497  0.97920092  0.51275063  1.0
  Ti  Ti2416  1  0.58976608  0.10420092  0.51275063  1.0
  Ti  Ti2417  1  0.58976608  0.22920092  0.51275063  1.0
  Ti  Ti2418  1  0.58976608  0.35420092  0.51275063  1.0
  Ti  Ti2419  1  0.58976608  0.47920092  0.51275063  1.0
  Ti  Ti2420  1  0.58976608  0.60420092  0.51275063  1.0
  Ti  Ti2421  1  0.58976608  0.72920092  0.51275063  1.0
  Ti  Ti2422  1  0.58976608  0.85420092  0.51275063  1.0
  Ti  Ti2423  1  0.58976608  0.97920092  0.51275063  1.0
  Ti  Ti2424  1  0.70087719  0.10420092  0.51275063  1.0
  Ti  Ti2425  1  0.70087719  0.22920092  0.51275063  1.0
  Ti  Ti2426  1  0.70087719  0.35420092  0.51275063  1.0
  Ti  Ti2427  1  0.70087719  0.47920092  0.51275063  1.0
  Ti  Ti2428  1  0.70087719  0.60420092  0.51275063  1.0
  Ti  Ti2429  1  0.70087719  0.72920092  0.51275063  1.0
  Ti  Ti2430  1  0.70087719  0.85420092  0.51275063  1.0
  Ti  Ti2431  1  0.70087719  0.97920092  0.51275063  1.0
  Ti  Ti2432  1  0.81198830  0.10420092  0.51275063  1.0
  Ti  Ti2433  1  0.81198830  0.22920092  0.51275063  1.0
  Ti  Ti2434  1  0.81198830  0.35420092  0.51275063  1.0
  Ti  Ti2435  1  0.81198830  0.47920092  0.51275063  1.0
  Ti  Ti2436  1  0.81198830  0.60420092  0.51275063  1.0
  Ti  Ti2437  1  0.81198830  0.72920092  0.51275063  1.0
  Ti  Ti2438  1  0.81198830  0.85420092  0.51275063  1.0
  Ti  Ti2439  1  0.81198830  0.97920092  0.51275063  1.0
  Ti  Ti2440  1  0.92309941  0.10420092  0.51275063  1.0
  Ti  Ti2441  1  0.92309941  0.22920092  0.51275063  1.0
  Ti  Ti2442  1  0.92309941  0.35420092  0.51275063  1.0
  Ti  Ti2443  1  0.92309941  0.47920092  0.51275063  1.0
  Ti  Ti2444  1  0.92309941  0.60420092  0.51275063  1.0
  Ti  Ti2445  1  0.92309941  0.72920092  0.51275063  1.0
  Ti  Ti2446  1  0.92309941  0.85420092  0.51275063  1.0
  Ti  Ti2447  1  0.92309941  0.97920092  0.51275063  1.0
  Ti  Ti2448  1  0.08712058  0.10420092  0.60798872  1.0
  Ti  Ti2449  1  0.08712058  0.22920092  0.60798872  1.0
  Ti  Ti2450  1  0.08712058  0.35420092  0.60798872  1.0
  Ti  Ti2451  1  0.08712058  0.47920092  0.60798872  1.0
  Ti  Ti2452  1  0.08712058  0.60420092  0.60798872  1.0
  Ti  Ti2453  1  0.08712058  0.72920092  0.60798872  1.0
  Ti  Ti2454  1  0.08712058  0.85420092  0.60798872  1.0
  Ti  Ti2455  1  0.08712058  0.97920092  0.60798872  1.0
  Ti  Ti2456  1  0.19823169  0.10420092  0.60798872  1.0
  Ti  Ti2457  1  0.19823169  0.22920092  0.60798872  1.0
  Ti  Ti2458  1  0.19823169  0.35420092  0.60798872  1.0
  Ti  Ti2459  1  0.19823169  0.47920092  0.60798872  1.0
  Ti  Ti2460  1  0.19823169  0.60420092  0.60798872  1.0
  Ti  Ti2461  1  0.19823169  0.72920092  0.60798872  1.0
  Ti  Ti2462  1  0.19823169  0.85420092  0.60798872  1.0
  Ti  Ti2463  1  0.19823169  0.97920092  0.60798872  1.0
  Ti  Ti2464  1  0.30934280  0.10420092  0.60798872  1.0
  Ti  Ti2465  1  0.30934280  0.22920092  0.60798872  1.0
  Ti  Ti2466  1  0.30934280  0.35420092  0.60798872  1.0
  Ti  Ti2467  1  0.30934280  0.47920092  0.60798872  1.0
  Ti  Ti2468  1  0.30934280  0.60420092  0.60798872  1.0
  Ti  Ti2469  1  0.30934280  0.72920092  0.60798872  1.0
  Ti  Ti2470  1  0.30934280  0.85420092  0.60798872  1.0
  Ti  Ti2471  1  0.30934280  0.97920092  0.60798872  1.0
  Ti  Ti2472  1  0.42045391  0.10420092  0.60798872  1.0
  Ti  Ti2473  1  0.42045391  0.22920092  0.60798872  1.0
  Ti  Ti2474  1  0.42045391  0.35420092  0.60798872  1.0
  Ti  Ti2475  1  0.42045391  0.47920092  0.60798872  1.0
  Ti  Ti2476  1  0.42045391  0.60420092  0.60798872  1.0
  Ti  Ti2477  1  0.42045391  0.72920092  0.60798872  1.0
  Ti  Ti2478  1  0.42045391  0.85420092  0.60798872  1.0
  Ti  Ti2479  1  0.42045391  0.97920092  0.60798872  1.0
  Ti  Ti2480  1  0.53156502  0.10420092  0.60798872  1.0
  Ti  Ti2481  1  0.53156502  0.22920092  0.60798872  1.0
  Ti  Ti2482  1  0.53156502  0.35420092  0.60798872  1.0
  Ti  Ti2483  1  0.53156502  0.47920092  0.60798872  1.0
  Ti  Ti2484  1  0.53156502  0.60420092  0.60798872  1.0
  Ti  Ti2485  1  0.53156502  0.72920092  0.60798872  1.0
  Ti  Ti2486  1  0.53156502  0.85420092  0.60798872  1.0
  Ti  Ti2487  1  0.53156502  0.97920092  0.60798872  1.0
  Ti  Ti2488  1  0.64267613  0.10420092  0.60798872  1.0
  Ti  Ti2489  1  0.64267613  0.22920092  0.60798872  1.0
  Ti  Ti2490  1  0.64267613  0.35420092  0.60798872  1.0
  Ti  Ti2491  1  0.64267613  0.47920092  0.60798872  1.0
  Ti  Ti2492  1  0.64267613  0.60420092  0.60798872  1.0
  Ti  Ti2493  1  0.64267613  0.72920092  0.60798872  1.0
  Ti  Ti2494  1  0.64267613  0.85420092  0.60798872  1.0
  Ti  Ti2495  1  0.64267613  0.97920092  0.60798872  1.0
  Ti  Ti2496  1  0.75378724  0.10420092  0.60798872  1.0
  Ti  Ti2497  1  0.75378724  0.22920092  0.60798872  1.0
  Ti  Ti2498  1  0.75378724  0.35420092  0.60798872  1.0
  Ti  Ti2499  1  0.75378724  0.47920092  0.60798872  1.0
  Ti  Ti2500  1  0.75378724  0.60420092  0.60798872  1.0
  Ti  Ti2501  1  0.75378724  0.72920092  0.60798872  1.0
  Ti  Ti2502  1  0.75378724  0.85420092  0.60798872  1.0
  Ti  Ti2503  1  0.75378724  0.97920092  0.60798872  1.0
  Ti  Ti2504  1  0.86489835  0.10420092  0.60798872  1.0
  Ti  Ti2505  1  0.86489835  0.22920092  0.60798872  1.0
  Ti  Ti2506  1  0.86489835  0.35420092  0.60798872  1.0
  Ti  Ti2507  1  0.86489835  0.47920092  0.60798872  1.0
  Ti  Ti2508  1  0.86489835  0.60420092  0.60798872  1.0
  Ti  Ti2509  1  0.86489835  0.72920092  0.60798872  1.0
  Ti  Ti2510  1  0.86489835  0.85420092  0.60798872  1.0
  Ti  Ti2511  1  0.86489835  0.97920092  0.60798872  1.0
  Ti  Ti2512  1  0.97600946  0.10420092  0.60798872  1.0
  Ti  Ti2513  1  0.97600946  0.22920092  0.60798872  1.0
  Ti  Ti2514  1  0.97600946  0.35420092  0.60798872  1.0
  Ti  Ti2515  1  0.97600946  0.47920092  0.60798872  1.0
  Ti  Ti2516  1  0.97600946  0.60420092  0.60798872  1.0
  Ti  Ti2517  1  0.97600946  0.72920092  0.60798872  1.0
  Ti  Ti2518  1  0.97600946  0.85420092  0.60798872  1.0
  Ti  Ti2519  1  0.97600946  0.97920092  0.60798872  1.0
  Ti  Ti2520  1  0.06066555  0.10420092  0.56036968  1.0
  Ti  Ti2521  1  0.06066555  0.22920092  0.56036968  1.0
  Ti  Ti2522  1  0.06066555  0.35420092  0.56036968  1.0
  Ti  Ti2523  1  0.06066555  0.47920092  0.56036968  1.0
  Ti  Ti2524  1  0.06066555  0.60420092  0.56036968  1.0
  Ti  Ti2525  1  0.06066555  0.72920092  0.56036968  1.0
  Ti  Ti2526  1  0.06066555  0.85420092  0.56036968  1.0
  Ti  Ti2527  1  0.06066555  0.97920092  0.56036968  1.0
  Ti  Ti2528  1  0.17177666  0.10420092  0.56036968  1.0
  Ti  Ti2529  1  0.17177666  0.22920092  0.56036968  1.0
  Ti  Ti2530  1  0.17177666  0.35420092  0.56036968  1.0
  Ti  Ti2531  1  0.17177666  0.47920092  0.56036968  1.0
  Ti  Ti2532  1  0.17177666  0.60420092  0.56036968  1.0
  Ti  Ti2533  1  0.17177666  0.72920092  0.56036968  1.0
  Ti  Ti2534  1  0.17177666  0.85420092  0.56036968  1.0
  Ti  Ti2535  1  0.17177666  0.97920092  0.56036968  1.0
  Ti  Ti2536  1  0.28288777  0.10420092  0.56036968  1.0
  Ti  Ti2537  1  0.28288777  0.22920092  0.56036968  1.0
  Ti  Ti2538  1  0.28288777  0.35420092  0.56036968  1.0
  Ti  Ti2539  1  0.28288777  0.47920092  0.56036968  1.0
  Ti  Ti2540  1  0.28288777  0.60420092  0.56036968  1.0
  Ti  Ti2541  1  0.28288777  0.72920092  0.56036968  1.0
  Ti  Ti2542  1  0.28288777  0.85420092  0.56036968  1.0
  Ti  Ti2543  1  0.28288777  0.97920092  0.56036968  1.0
  Ti  Ti2544  1  0.39399888  0.10420092  0.56036968  1.0
  Ti  Ti2545  1  0.39399888  0.22920092  0.56036968  1.0
  Ti  Ti2546  1  0.39399888  0.35420092  0.56036968  1.0
  Ti  Ti2547  1  0.39399888  0.47920092  0.56036968  1.0
  Ti  Ti2548  1  0.39399888  0.60420092  0.56036968  1.0
  Ti  Ti2549  1  0.39399888  0.72920092  0.56036968  1.0
  Ti  Ti2550  1  0.39399888  0.85420092  0.56036968  1.0
  Ti  Ti2551  1  0.39399888  0.97920092  0.56036968  1.0
  Ti  Ti2552  1  0.50510999  0.10420092  0.56036968  1.0
  Ti  Ti2553  1  0.50510999  0.22920092  0.56036968  1.0
  Ti  Ti2554  1  0.50510999  0.35420092  0.56036968  1.0
  Ti  Ti2555  1  0.50510999  0.47920092  0.56036968  1.0
  Ti  Ti2556  1  0.50510999  0.60420092  0.56036968  1.0
  Ti  Ti2557  1  0.50510999  0.72920092  0.56036968  1.0
  Ti  Ti2558  1  0.50510999  0.85420092  0.56036968  1.0
  Ti  Ti2559  1  0.50510999  0.97920092  0.56036968  1.0
  Ti  Ti2560  1  0.61622110  0.10420092  0.56036968  1.0
  Ti  Ti2561  1  0.61622110  0.22920092  0.56036968  1.0
  Ti  Ti2562  1  0.61622110  0.35420092  0.56036968  1.0
  Ti  Ti2563  1  0.61622110  0.47920092  0.56036968  1.0
  Ti  Ti2564  1  0.61622110  0.60420092  0.56036968  1.0
  Ti  Ti2565  1  0.61622110  0.72920092  0.56036968  1.0
  Ti  Ti2566  1  0.61622110  0.85420092  0.56036968  1.0
  Ti  Ti2567  1  0.61622110  0.97920092  0.56036968  1.0
  Ti  Ti2568  1  0.72733222  0.10420092  0.56036968  1.0
  Ti  Ti2569  1  0.72733222  0.22920092  0.56036968  1.0
  Ti  Ti2570  1  0.72733222  0.35420092  0.56036968  1.0
  Ti  Ti2571  1  0.72733222  0.47920092  0.56036968  1.0
  Ti  Ti2572  1  0.72733222  0.60420092  0.56036968  1.0
  Ti  Ti2573  1  0.72733222  0.72920092  0.56036968  1.0
  Ti  Ti2574  1  0.72733222  0.85420092  0.56036968  1.0
  Ti  Ti2575  1  0.72733222  0.97920092  0.56036968  1.0
  Ti  Ti2576  1  0.83844333  0.10420092  0.56036968  1.0
  Ti  Ti2577  1  0.83844333  0.22920092  0.56036968  1.0
  Ti  Ti2578  1  0.83844333  0.35420092  0.56036968  1.0
  Ti  Ti2579  1  0.83844333  0.47920092  0.56036968  1.0
  Ti  Ti2580  1  0.83844333  0.60420092  0.56036968  1.0
  Ti  Ti2581  1  0.83844333  0.72920092  0.56036968  1.0
  Ti  Ti2582  1  0.83844333  0.85420092  0.56036968  1.0
  Ti  Ti2583  1  0.83844333  0.97920092  0.56036968  1.0
  Ti  Ti2584  1  0.94955444  0.10420092  0.56036968  1.0
  Ti  Ti2585  1  0.94955444  0.22920092  0.56036968  1.0
  Ti  Ti2586  1  0.94955444  0.35420092  0.56036968  1.0
  Ti  Ti2587  1  0.94955444  0.47920092  0.56036968  1.0
  Ti  Ti2588  1  0.94955444  0.60420092  0.56036968  1.0
  Ti  Ti2589  1  0.94955444  0.72920092  0.56036968  1.0
  Ti  Ti2590  1  0.94955444  0.85420092  0.56036968  1.0
  Ti  Ti2591  1  0.94955444  0.97920092  0.56036968  1.0
  Ti  Ti2592  1  0.01869953  0.04170092  0.67772556  1.0
  Ti  Ti2593  1  0.01869953  0.16670092  0.67772556  1.0
  Ti  Ti2594  1  0.01869953  0.29170092  0.67772556  1.0
  Ti  Ti2595  1  0.01869953  0.41670092  0.67772556  1.0
  Ti  Ti2596  1  0.01869953  0.54170092  0.67772556  1.0
  Ti  Ti2597  1  0.01869953  0.66670092  0.67772556  1.0
  Ti  Ti2598  1  0.01869953  0.79170092  0.67772556  1.0
  Ti  Ti2599  1  0.01869953  0.91670092  0.67772556  1.0
  Ti  Ti2600  1  0.12981064  0.04170092  0.67772556  1.0
  Ti  Ti2601  1  0.12981064  0.16670092  0.67772556  1.0
  Ti  Ti2602  1  0.12981064  0.29170092  0.67772556  1.0
  Ti  Ti2603  1  0.12981064  0.41670092  0.67772556  1.0
  Ti  Ti2604  1  0.12981064  0.54170092  0.67772556  1.0
  Ti  Ti2605  1  0.12981064  0.66670092  0.67772556  1.0
  Ti  Ti2606  1  0.12981064  0.79170092  0.67772556  1.0
  Ti  Ti2607  1  0.12981064  0.91670092  0.67772556  1.0
  Ti  Ti2608  1  0.24092175  0.04170092  0.67772556  1.0
  Ti  Ti2609  1  0.24092175  0.16670092  0.67772556  1.0
  Ti  Ti2610  1  0.24092175  0.29170092  0.67772556  1.0
  Ti  Ti2611  1  0.24092175  0.41670092  0.67772556  1.0
  Ti  Ti2612  1  0.24092175  0.54170092  0.67772556  1.0
  Ti  Ti2613  1  0.24092175  0.66670092  0.67772556  1.0
  Ti  Ti2614  1  0.24092175  0.79170092  0.67772556  1.0
  Ti  Ti2615  1  0.24092175  0.91670092  0.67772556  1.0
  Ti  Ti2616  1  0.35203286  0.04170092  0.67772556  1.0
  Ti  Ti2617  1  0.35203286  0.16670092  0.67772556  1.0
  Ti  Ti2618  1  0.35203286  0.29170092  0.67772556  1.0
  Ti  Ti2619  1  0.35203286  0.41670092  0.67772556  1.0
  Ti  Ti2620  1  0.35203286  0.54170092  0.67772556  1.0
  Ti  Ti2621  1  0.35203286  0.66670092  0.67772556  1.0
  Ti  Ti2622  1  0.35203286  0.79170092  0.67772556  1.0
  Ti  Ti2623  1  0.35203286  0.91670092  0.67772556  1.0
  Ti  Ti2624  1  0.46314397  0.04170092  0.67772556  1.0
  Ti  Ti2625  1  0.46314397  0.16670092  0.67772556  1.0
  Ti  Ti2626  1  0.46314397  0.29170092  0.67772556  1.0
  Ti  Ti2627  1  0.46314397  0.41670092  0.67772556  1.0
  Ti  Ti2628  1  0.46314397  0.54170092  0.67772556  1.0
  Ti  Ti2629  1  0.46314397  0.66670092  0.67772556  1.0
  Ti  Ti2630  1  0.46314397  0.79170092  0.67772556  1.0
  Ti  Ti2631  1  0.46314397  0.91670092  0.67772556  1.0
  Ti  Ti2632  1  0.57425509  0.04170092  0.67772556  1.0
  Ti  Ti2633  1  0.57425509  0.16670092  0.67772556  1.0
  Ti  Ti2634  1  0.57425509  0.29170092  0.67772556  1.0
  Ti  Ti2635  1  0.57425509  0.41670092  0.67772556  1.0
  Ti  Ti2636  1  0.57425509  0.54170092  0.67772556  1.0
  Ti  Ti2637  1  0.57425509  0.66670092  0.67772556  1.0
  Ti  Ti2638  1  0.57425509  0.79170092  0.67772556  1.0
  Ti  Ti2639  1  0.57425509  0.91670092  0.67772556  1.0
  Ti  Ti2640  1  0.68536620  0.04170092  0.67772556  1.0
  Ti  Ti2641  1  0.68536620  0.16670092  0.67772556  1.0
  Ti  Ti2642  1  0.68536620  0.29170092  0.67772556  1.0
  Ti  Ti2643  1  0.68536620  0.41670092  0.67772556  1.0
  Ti  Ti2644  1  0.68536620  0.54170092  0.67772556  1.0
  Ti  Ti2645  1  0.68536620  0.66670092  0.67772556  1.0
  Ti  Ti2646  1  0.68536620  0.79170092  0.67772556  1.0
  Ti  Ti2647  1  0.68536620  0.91670092  0.67772556  1.0
  Ti  Ti2648  1  0.79647731  0.04170092  0.67772556  1.0
  Ti  Ti2649  1  0.79647731  0.16670092  0.67772556  1.0
  Ti  Ti2650  1  0.79647731  0.29170092  0.67772556  1.0
  Ti  Ti2651  1  0.79647731  0.41670092  0.67772556  1.0
  Ti  Ti2652  1  0.79647731  0.54170092  0.67772556  1.0
  Ti  Ti2653  1  0.79647731  0.66670092  0.67772556  1.0
  Ti  Ti2654  1  0.79647731  0.79170092  0.67772556  1.0
  Ti  Ti2655  1  0.79647731  0.91670092  0.67772556  1.0
  Ti  Ti2656  1  0.90758842  0.04170092  0.67772556  1.0
  Ti  Ti2657  1  0.90758842  0.16670092  0.67772556  1.0
  Ti  Ti2658  1  0.90758842  0.29170092  0.67772556  1.0
  Ti  Ti2659  1  0.90758842  0.41670092  0.67772556  1.0
  Ti  Ti2660  1  0.90758842  0.54170092  0.67772556  1.0
  Ti  Ti2661  1  0.90758842  0.66670092  0.67772556  1.0
  Ti  Ti2662  1  0.90758842  0.79170092  0.67772556  1.0
  Ti  Ti2663  1  0.90758842  0.91670092  0.67772556  1.0
  Ti  Ti2664  1  0.07160958  0.04170092  0.77296366  1.0
  Ti  Ti2665  1  0.07160958  0.16670092  0.77296366  1.0
  Ti  Ti2666  1  0.07160958  0.29170092  0.77296366  1.0
  Ti  Ti2667  1  0.07160958  0.41670092  0.77296366  1.0
  Ti  Ti2668  1  0.07160958  0.54170092  0.77296366  1.0
  Ti  Ti2669  1  0.07160958  0.66670092  0.77296366  1.0
  Ti  Ti2670  1  0.07160958  0.79170092  0.77296366  1.0
  Ti  Ti2671  1  0.07160958  0.91670092  0.77296366  1.0
  Ti  Ti2672  1  0.18272069  0.04170092  0.77296366  1.0
  Ti  Ti2673  1  0.18272069  0.16670092  0.77296366  1.0
  Ti  Ti2674  1  0.18272069  0.29170092  0.77296366  1.0
  Ti  Ti2675  1  0.18272069  0.41670092  0.77296366  1.0
  Ti  Ti2676  1  0.18272069  0.54170092  0.77296366  1.0
  Ti  Ti2677  1  0.18272069  0.66670092  0.77296366  1.0
  Ti  Ti2678  1  0.18272069  0.79170092  0.77296366  1.0
  Ti  Ti2679  1  0.18272069  0.91670092  0.77296366  1.0
  Ti  Ti2680  1  0.29383181  0.04170092  0.77296366  1.0
  Ti  Ti2681  1  0.29383181  0.16670092  0.77296366  1.0
  Ti  Ti2682  1  0.29383181  0.29170092  0.77296366  1.0
  Ti  Ti2683  1  0.29383181  0.41670092  0.77296366  1.0
  Ti  Ti2684  1  0.29383181  0.54170092  0.77296366  1.0
  Ti  Ti2685  1  0.29383181  0.66670092  0.77296366  1.0
  Ti  Ti2686  1  0.29383181  0.79170092  0.77296366  1.0
  Ti  Ti2687  1  0.29383181  0.91670092  0.77296366  1.0
  Ti  Ti2688  1  0.40494292  0.04170092  0.77296366  1.0
  Ti  Ti2689  1  0.40494292  0.16670092  0.77296366  1.0
  Ti  Ti2690  1  0.40494292  0.29170092  0.77296366  1.0
  Ti  Ti2691  1  0.40494292  0.41670092  0.77296366  1.0
  Ti  Ti2692  1  0.40494292  0.54170092  0.77296366  1.0
  Ti  Ti2693  1  0.40494292  0.66670092  0.77296366  1.0
  Ti  Ti2694  1  0.40494292  0.79170092  0.77296366  1.0
  Ti  Ti2695  1  0.40494292  0.91670092  0.77296366  1.0
  Ti  Ti2696  1  0.51605403  0.04170092  0.77296366  1.0
  Ti  Ti2697  1  0.51605403  0.16670092  0.77296366  1.0
  Ti  Ti2698  1  0.51605403  0.29170092  0.77296366  1.0
  Ti  Ti2699  1  0.51605403  0.41670092  0.77296366  1.0
  Ti  Ti2700  1  0.51605403  0.54170092  0.77296366  1.0
  Ti  Ti2701  1  0.51605403  0.66670092  0.77296366  1.0
  Ti  Ti2702  1  0.51605403  0.79170092  0.77296366  1.0
  Ti  Ti2703  1  0.51605403  0.91670092  0.77296366  1.0
  Ti  Ti2704  1  0.62716514  0.04170092  0.77296366  1.0
  Ti  Ti2705  1  0.62716514  0.16670092  0.77296366  1.0
  Ti  Ti2706  1  0.62716514  0.29170092  0.77296366  1.0
  Ti  Ti2707  1  0.62716514  0.41670092  0.77296366  1.0
  Ti  Ti2708  1  0.62716514  0.54170092  0.77296366  1.0
  Ti  Ti2709  1  0.62716514  0.66670092  0.77296366  1.0
  Ti  Ti2710  1  0.62716514  0.79170092  0.77296366  1.0
  Ti  Ti2711  1  0.62716514  0.91670092  0.77296366  1.0
  Ti  Ti2712  1  0.73827625  0.04170092  0.77296366  1.0
  Ti  Ti2713  1  0.73827625  0.16670092  0.77296366  1.0
  Ti  Ti2714  1  0.73827625  0.29170092  0.77296366  1.0
  Ti  Ti2715  1  0.73827625  0.41670092  0.77296366  1.0
  Ti  Ti2716  1  0.73827625  0.54170092  0.77296366  1.0
  Ti  Ti2717  1  0.73827625  0.66670092  0.77296366  1.0
  Ti  Ti2718  1  0.73827625  0.79170092  0.77296366  1.0
  Ti  Ti2719  1  0.73827625  0.91670092  0.77296366  1.0
  Ti  Ti2720  1  0.84938736  0.04170092  0.77296366  1.0
  Ti  Ti2721  1  0.84938736  0.16670092  0.77296366  1.0
  Ti  Ti2722  1  0.84938736  0.29170092  0.77296366  1.0
  Ti  Ti2723  1  0.84938736  0.41670092  0.77296366  1.0
  Ti  Ti2724  1  0.84938736  0.54170092  0.77296366  1.0
  Ti  Ti2725  1  0.84938736  0.66670092  0.77296366  1.0
  Ti  Ti2726  1  0.84938736  0.79170092  0.77296366  1.0
  Ti  Ti2727  1  0.84938736  0.91670092  0.77296366  1.0
  Ti  Ti2728  1  0.96049847  0.04170092  0.77296366  1.0
  Ti  Ti2729  1  0.96049847  0.16670092  0.77296366  1.0
  Ti  Ti2730  1  0.96049847  0.29170092  0.77296366  1.0
  Ti  Ti2731  1  0.96049847  0.41670092  0.77296366  1.0
  Ti  Ti2732  1  0.96049847  0.54170092  0.77296366  1.0
  Ti  Ti2733  1  0.96049847  0.66670092  0.77296366  1.0
  Ti  Ti2734  1  0.96049847  0.79170092  0.77296366  1.0
  Ti  Ti2735  1  0.96049847  0.91670092  0.77296366  1.0
  Ti  Ti2736  1  0.04515456  0.04170092  0.72534461  1.0
  Ti  Ti2737  1  0.04515456  0.16670092  0.72534461  1.0
  Ti  Ti2738  1  0.04515456  0.29170092  0.72534461  1.0
  Ti  Ti2739  1  0.04515456  0.41670092  0.72534461  1.0
  Ti  Ti2740  1  0.04515456  0.54170092  0.72534461  1.0
  Ti  Ti2741  1  0.04515456  0.66670092  0.72534461  1.0
  Ti  Ti2742  1  0.04515456  0.79170092  0.72534461  1.0
  Ti  Ti2743  1  0.04515456  0.91670092  0.72534461  1.0
  Ti  Ti2744  1  0.15626567  0.04170092  0.72534461  1.0
  Ti  Ti2745  1  0.15626567  0.16670092  0.72534461  1.0
  Ti  Ti2746  1  0.15626567  0.29170092  0.72534461  1.0
  Ti  Ti2747  1  0.15626567  0.41670092  0.72534461  1.0
  Ti  Ti2748  1  0.15626567  0.54170092  0.72534461  1.0
  Ti  Ti2749  1  0.15626567  0.66670092  0.72534461  1.0
  Ti  Ti2750  1  0.15626567  0.79170092  0.72534461  1.0
  Ti  Ti2751  1  0.15626567  0.91670092  0.72534461  1.0
  Ti  Ti2752  1  0.26737678  0.04170092  0.72534461  1.0
  Ti  Ti2753  1  0.26737678  0.16670092  0.72534461  1.0
  Ti  Ti2754  1  0.26737678  0.29170092  0.72534461  1.0
  Ti  Ti2755  1  0.26737678  0.41670092  0.72534461  1.0
  Ti  Ti2756  1  0.26737678  0.54170092  0.72534461  1.0
  Ti  Ti2757  1  0.26737678  0.66670092  0.72534461  1.0
  Ti  Ti2758  1  0.26737678  0.79170092  0.72534461  1.0
  Ti  Ti2759  1  0.26737678  0.91670092  0.72534461  1.0
  Ti  Ti2760  1  0.37848789  0.04170092  0.72534461  1.0
  Ti  Ti2761  1  0.37848789  0.16670092  0.72534461  1.0
  Ti  Ti2762  1  0.37848789  0.29170092  0.72534461  1.0
  Ti  Ti2763  1  0.37848789  0.41670092  0.72534461  1.0
  Ti  Ti2764  1  0.37848789  0.54170092  0.72534461  1.0
  Ti  Ti2765  1  0.37848789  0.66670092  0.72534461  1.0
  Ti  Ti2766  1  0.37848789  0.79170092  0.72534461  1.0
  Ti  Ti2767  1  0.37848789  0.91670092  0.72534461  1.0
  Ti  Ti2768  1  0.48959900  0.04170092  0.72534461  1.0
  Ti  Ti2769  1  0.48959900  0.16670092  0.72534461  1.0
  Ti  Ti2770  1  0.48959900  0.29170092  0.72534461  1.0
  Ti  Ti2771  1  0.48959900  0.41670092  0.72534461  1.0
  Ti  Ti2772  1  0.48959900  0.54170092  0.72534461  1.0
  Ti  Ti2773  1  0.48959900  0.66670092  0.72534461  1.0
  Ti  Ti2774  1  0.48959900  0.79170092  0.72534461  1.0
  Ti  Ti2775  1  0.48959900  0.91670092  0.72534461  1.0
  Ti  Ti2776  1  0.60071011  0.04170092  0.72534461  1.0
  Ti  Ti2777  1  0.60071011  0.16670092  0.72534461  1.0
  Ti  Ti2778  1  0.60071011  0.29170092  0.72534461  1.0
  Ti  Ti2779  1  0.60071011  0.41670092  0.72534461  1.0
  Ti  Ti2780  1  0.60071011  0.54170092  0.72534461  1.0
  Ti  Ti2781  1  0.60071011  0.66670092  0.72534461  1.0
  Ti  Ti2782  1  0.60071011  0.79170092  0.72534461  1.0
  Ti  Ti2783  1  0.60071011  0.91670092  0.72534461  1.0
  Ti  Ti2784  1  0.71182122  0.04170092  0.72534461  1.0
  Ti  Ti2785  1  0.71182122  0.16670092  0.72534461  1.0
  Ti  Ti2786  1  0.71182122  0.29170092  0.72534461  1.0
  Ti  Ti2787  1  0.71182122  0.41670092  0.72534461  1.0
  Ti  Ti2788  1  0.71182122  0.54170092  0.72534461  1.0
  Ti  Ti2789  1  0.71182122  0.66670092  0.72534461  1.0
  Ti  Ti2790  1  0.71182122  0.79170092  0.72534461  1.0
  Ti  Ti2791  1  0.71182122  0.91670092  0.72534461  1.0
  Ti  Ti2792  1  0.82293233  0.04170092  0.72534461  1.0
  Ti  Ti2793  1  0.82293233  0.16670092  0.72534461  1.0
  Ti  Ti2794  1  0.82293233  0.29170092  0.72534461  1.0
  Ti  Ti2795  1  0.82293233  0.41670092  0.72534461  1.0
  Ti  Ti2796  1  0.82293233  0.54170092  0.72534461  1.0
  Ti  Ti2797  1  0.82293233  0.66670092  0.72534461  1.0
  Ti  Ti2798  1  0.82293233  0.79170092  0.72534461  1.0
  Ti  Ti2799  1  0.82293233  0.91670092  0.72534461  1.0
  Ti  Ti2800  1  0.93404345  0.04170092  0.72534461  1.0
  Ti  Ti2801  1  0.93404345  0.16670092  0.72534461  1.0
  Ti  Ti2802  1  0.93404345  0.29170092  0.72534461  1.0
  Ti  Ti2803  1  0.93404345  0.41670092  0.72534461  1.0
  Ti  Ti2804  1  0.93404345  0.54170092  0.72534461  1.0
  Ti  Ti2805  1  0.93404345  0.66670092  0.72534461  1.0
  Ti  Ti2806  1  0.93404345  0.79170092  0.72534461  1.0
  Ti  Ti2807  1  0.93404345  0.91670092  0.72534461  1.0
  Ti  Ti2808  1  0.07124756  0.08329908  0.67941730  1.0
  Ti  Ti2809  1  0.07124756  0.20829908  0.67941730  1.0
  Ti  Ti2810  1  0.07124756  0.33329908  0.67941730  1.0
  Ti  Ti2811  1  0.07124756  0.45829908  0.67941730  1.0
  Ti  Ti2812  1  0.07124756  0.58329908  0.67941730  1.0
  Ti  Ti2813  1  0.07124756  0.70829908  0.67941730  1.0
  Ti  Ti2814  1  0.07124756  0.83329908  0.67941730  1.0
  Ti  Ti2815  1  0.07124756  0.95829908  0.67941730  1.0
  Ti  Ti2816  1  0.18235867  0.08329908  0.67941730  1.0
  Ti  Ti2817  1  0.18235867  0.20829908  0.67941730  1.0
  Ti  Ti2818  1  0.18235867  0.33329908  0.67941730  1.0
  Ti  Ti2819  1  0.18235867  0.45829908  0.67941730  1.0
  Ti  Ti2820  1  0.18235867  0.58329908  0.67941730  1.0
  Ti  Ti2821  1  0.18235867  0.70829908  0.67941730  1.0
  Ti  Ti2822  1  0.18235867  0.83329908  0.67941730  1.0
  Ti  Ti2823  1  0.18235867  0.95829908  0.67941730  1.0
  Ti  Ti2824  1  0.29346978  0.08329908  0.67941730  1.0
  Ti  Ti2825  1  0.29346978  0.20829908  0.67941730  1.0
  Ti  Ti2826  1  0.29346978  0.33329908  0.67941730  1.0
  Ti  Ti2827  1  0.29346978  0.45829908  0.67941730  1.0
  Ti  Ti2828  1  0.29346978  0.58329908  0.67941730  1.0
  Ti  Ti2829  1  0.29346978  0.70829908  0.67941730  1.0
  Ti  Ti2830  1  0.29346978  0.83329908  0.67941730  1.0
  Ti  Ti2831  1  0.29346978  0.95829908  0.67941730  1.0
  Ti  Ti2832  1  0.40458089  0.08329908  0.67941730  1.0
  Ti  Ti2833  1  0.40458089  0.20829908  0.67941730  1.0
  Ti  Ti2834  1  0.40458089  0.33329908  0.67941730  1.0
  Ti  Ti2835  1  0.40458089  0.45829908  0.67941730  1.0
  Ti  Ti2836  1  0.40458089  0.58329908  0.67941730  1.0
  Ti  Ti2837  1  0.40458089  0.70829908  0.67941730  1.0
  Ti  Ti2838  1  0.40458089  0.83329908  0.67941730  1.0
  Ti  Ti2839  1  0.40458089  0.95829908  0.67941730  1.0
  Ti  Ti2840  1  0.51569200  0.08329908  0.67941730  1.0
  Ti  Ti2841  1  0.51569200  0.20829908  0.67941730  1.0
  Ti  Ti2842  1  0.51569200  0.33329908  0.67941730  1.0
  Ti  Ti2843  1  0.51569200  0.45829908  0.67941730  1.0
  Ti  Ti2844  1  0.51569200  0.58329908  0.67941730  1.0
  Ti  Ti2845  1  0.51569200  0.70829908  0.67941730  1.0
  Ti  Ti2846  1  0.51569200  0.83329908  0.67941730  1.0
  Ti  Ti2847  1  0.51569200  0.95829908  0.67941730  1.0
  Ti  Ti2848  1  0.62680312  0.08329908  0.67941730  1.0
  Ti  Ti2849  1  0.62680312  0.20829908  0.67941730  1.0
  Ti  Ti2850  1  0.62680312  0.33329908  0.67941730  1.0
  Ti  Ti2851  1  0.62680312  0.45829908  0.67941730  1.0
  Ti  Ti2852  1  0.62680312  0.58329908  0.67941730  1.0
  Ti  Ti2853  1  0.62680312  0.70829908  0.67941730  1.0
  Ti  Ti2854  1  0.62680312  0.83329908  0.67941730  1.0
  Ti  Ti2855  1  0.62680312  0.95829908  0.67941730  1.0
  Ti  Ti2856  1  0.73791423  0.08329908  0.67941730  1.0
  Ti  Ti2857  1  0.73791423  0.20829908  0.67941730  1.0
  Ti  Ti2858  1  0.73791423  0.33329908  0.67941730  1.0
  Ti  Ti2859  1  0.73791423  0.45829908  0.67941730  1.0
  Ti  Ti2860  1  0.73791423  0.58329908  0.67941730  1.0
  Ti  Ti2861  1  0.73791423  0.70829908  0.67941730  1.0
  Ti  Ti2862  1  0.73791423  0.83329908  0.67941730  1.0
  Ti  Ti2863  1  0.73791423  0.95829908  0.67941730  1.0
  Ti  Ti2864  1  0.84902534  0.08329908  0.67941730  1.0
  Ti  Ti2865  1  0.84902534  0.20829908  0.67941730  1.0
  Ti  Ti2866  1  0.84902534  0.33329908  0.67941730  1.0
  Ti  Ti2867  1  0.84902534  0.45829908  0.67941730  1.0
  Ti  Ti2868  1  0.84902534  0.58329908  0.67941730  1.0
  Ti  Ti2869  1  0.84902534  0.70829908  0.67941730  1.0
  Ti  Ti2870  1  0.84902534  0.83329908  0.67941730  1.0
  Ti  Ti2871  1  0.84902534  0.95829908  0.67941730  1.0
  Ti  Ti2872  1  0.96013645  0.08329908  0.67941730  1.0
  Ti  Ti2873  1  0.96013645  0.20829908  0.67941730  1.0
  Ti  Ti2874  1  0.96013645  0.33329908  0.67941730  1.0
  Ti  Ti2875  1  0.96013645  0.45829908  0.67941730  1.0
  Ti  Ti2876  1  0.96013645  0.58329908  0.67941730  1.0
  Ti  Ti2877  1  0.96013645  0.70829908  0.67941730  1.0
  Ti  Ti2878  1  0.96013645  0.83329908  0.67941730  1.0
  Ti  Ti2879  1  0.96013645  0.95829908  0.67941730  1.0
  Ti  Ti2880  1  0.01304650  0.08329908  0.77465539  1.0
  Ti  Ti2881  1  0.01304650  0.20829908  0.77465539  1.0
  Ti  Ti2882  1  0.01304650  0.33329908  0.77465539  1.0
  Ti  Ti2883  1  0.01304650  0.45829908  0.77465539  1.0
  Ti  Ti2884  1  0.01304650  0.58329908  0.77465539  1.0
  Ti  Ti2885  1  0.01304650  0.70829908  0.77465539  1.0
  Ti  Ti2886  1  0.01304650  0.83329908  0.77465539  1.0
  Ti  Ti2887  1  0.01304650  0.95829908  0.77465539  1.0
  Ti  Ti2888  1  0.12415761  0.08329908  0.77465539  1.0
  Ti  Ti2889  1  0.12415761  0.20829908  0.77465539  1.0
  Ti  Ti2890  1  0.12415761  0.33329908  0.77465539  1.0
  Ti  Ti2891  1  0.12415761  0.45829908  0.77465539  1.0
  Ti  Ti2892  1  0.12415761  0.58329908  0.77465539  1.0
  Ti  Ti2893  1  0.12415761  0.70829908  0.77465539  1.0
  Ti  Ti2894  1  0.12415761  0.83329908  0.77465539  1.0
  Ti  Ti2895  1  0.12415761  0.95829908  0.77465539  1.0
  Ti  Ti2896  1  0.23526872  0.08329908  0.77465539  1.0
  Ti  Ti2897  1  0.23526872  0.20829908  0.77465539  1.0
  Ti  Ti2898  1  0.23526872  0.33329908  0.77465539  1.0
  Ti  Ti2899  1  0.23526872  0.45829908  0.77465539  1.0
  Ti  Ti2900  1  0.23526872  0.58329908  0.77465539  1.0
  Ti  Ti2901  1  0.23526872  0.70829908  0.77465539  1.0
  Ti  Ti2902  1  0.23526872  0.83329908  0.77465539  1.0
  Ti  Ti2903  1  0.23526872  0.95829908  0.77465539  1.0
  Ti  Ti2904  1  0.34637983  0.08329908  0.77465539  1.0
  Ti  Ti2905  1  0.34637983  0.20829908  0.77465539  1.0
  Ti  Ti2906  1  0.34637983  0.33329908  0.77465539  1.0
  Ti  Ti2907  1  0.34637983  0.45829908  0.77465539  1.0
  Ti  Ti2908  1  0.34637983  0.58329908  0.77465539  1.0
  Ti  Ti2909  1  0.34637983  0.70829908  0.77465539  1.0
  Ti  Ti2910  1  0.34637983  0.83329908  0.77465539  1.0
  Ti  Ti2911  1  0.34637983  0.95829908  0.77465539  1.0
  Ti  Ti2912  1  0.45749095  0.08329908  0.77465539  1.0
  Ti  Ti2913  1  0.45749095  0.20829908  0.77465539  1.0
  Ti  Ti2914  1  0.45749095  0.33329908  0.77465539  1.0
  Ti  Ti2915  1  0.45749095  0.45829908  0.77465539  1.0
  Ti  Ti2916  1  0.45749095  0.58329908  0.77465539  1.0
  Ti  Ti2917  1  0.45749095  0.70829908  0.77465539  1.0
  Ti  Ti2918  1  0.45749095  0.83329908  0.77465539  1.0
  Ti  Ti2919  1  0.45749095  0.95829908  0.77465539  1.0
  Ti  Ti2920  1  0.56860206  0.08329908  0.77465539  1.0
  Ti  Ti2921  1  0.56860206  0.20829908  0.77465539  1.0
  Ti  Ti2922  1  0.56860206  0.33329908  0.77465539  1.0
  Ti  Ti2923  1  0.56860206  0.45829908  0.77465539  1.0
  Ti  Ti2924  1  0.56860206  0.58329908  0.77465539  1.0
  Ti  Ti2925  1  0.56860206  0.70829908  0.77465539  1.0
  Ti  Ti2926  1  0.56860206  0.83329908  0.77465539  1.0
  Ti  Ti2927  1  0.56860206  0.95829908  0.77465539  1.0
  Ti  Ti2928  1  0.67971317  0.08329908  0.77465539  1.0
  Ti  Ti2929  1  0.67971317  0.20829908  0.77465539  1.0
  Ti  Ti2930  1  0.67971317  0.33329908  0.77465539  1.0
  Ti  Ti2931  1  0.67971317  0.45829908  0.77465539  1.0
  Ti  Ti2932  1  0.67971317  0.58329908  0.77465539  1.0
  Ti  Ti2933  1  0.67971317  0.70829908  0.77465539  1.0
  Ti  Ti2934  1  0.67971317  0.83329908  0.77465539  1.0
  Ti  Ti2935  1  0.67971317  0.95829908  0.77465539  1.0
  Ti  Ti2936  1  0.79082428  0.08329908  0.77465539  1.0
  Ti  Ti2937  1  0.79082428  0.20829908  0.77465539  1.0
  Ti  Ti2938  1  0.79082428  0.33329908  0.77465539  1.0
  Ti  Ti2939  1  0.79082428  0.45829908  0.77465539  1.0
  Ti  Ti2940  1  0.79082428  0.58329908  0.77465539  1.0
  Ti  Ti2941  1  0.79082428  0.70829908  0.77465539  1.0
  Ti  Ti2942  1  0.79082428  0.83329908  0.77465539  1.0
  Ti  Ti2943  1  0.79082428  0.95829908  0.77465539  1.0
  Ti  Ti2944  1  0.90193539  0.08329908  0.77465539  1.0
  Ti  Ti2945  1  0.90193539  0.20829908  0.77465539  1.0
  Ti  Ti2946  1  0.90193539  0.33329908  0.77465539  1.0
  Ti  Ti2947  1  0.90193539  0.45829908  0.77465539  1.0
  Ti  Ti2948  1  0.90193539  0.58329908  0.77465539  1.0
  Ti  Ti2949  1  0.90193539  0.70829908  0.77465539  1.0
  Ti  Ti2950  1  0.90193539  0.83329908  0.77465539  1.0
  Ti  Ti2951  1  0.90193539  0.95829908  0.77465539  1.0
  Ti  Ti2952  1  0.09770259  0.08329908  0.72703634  1.0
  Ti  Ti2953  1  0.09770259  0.20829908  0.72703634  1.0
  Ti  Ti2954  1  0.09770259  0.33329908  0.72703634  1.0
  Ti  Ti2955  1  0.09770259  0.45829908  0.72703634  1.0
  Ti  Ti2956  1  0.09770259  0.58329908  0.72703634  1.0
  Ti  Ti2957  1  0.09770259  0.70829908  0.72703634  1.0
  Ti  Ti2958  1  0.09770259  0.83329908  0.72703634  1.0
  Ti  Ti2959  1  0.09770259  0.95829908  0.72703634  1.0
  Ti  Ti2960  1  0.20881370  0.08329908  0.72703634  1.0
  Ti  Ti2961  1  0.20881370  0.20829908  0.72703634  1.0
  Ti  Ti2962  1  0.20881370  0.33329908  0.72703634  1.0
  Ti  Ti2963  1  0.20881370  0.45829908  0.72703634  1.0
  Ti  Ti2964  1  0.20881370  0.58329908  0.72703634  1.0
  Ti  Ti2965  1  0.20881370  0.70829908  0.72703634  1.0
  Ti  Ti2966  1  0.20881370  0.83329908  0.72703634  1.0
  Ti  Ti2967  1  0.20881370  0.95829908  0.72703634  1.0
  Ti  Ti2968  1  0.31992481  0.08329908  0.72703634  1.0
  Ti  Ti2969  1  0.31992481  0.20829908  0.72703634  1.0
  Ti  Ti2970  1  0.31992481  0.33329908  0.72703634  1.0
  Ti  Ti2971  1  0.31992481  0.45829908  0.72703634  1.0
  Ti  Ti2972  1  0.31992481  0.58329908  0.72703634  1.0
  Ti  Ti2973  1  0.31992481  0.70829908  0.72703634  1.0
  Ti  Ti2974  1  0.31992481  0.83329908  0.72703634  1.0
  Ti  Ti2975  1  0.31992481  0.95829908  0.72703634  1.0
  Ti  Ti2976  1  0.43103592  0.08329908  0.72703634  1.0
  Ti  Ti2977  1  0.43103592  0.20829908  0.72703634  1.0
  Ti  Ti2978  1  0.43103592  0.33329908  0.72703634  1.0
  Ti  Ti2979  1  0.43103592  0.45829908  0.72703634  1.0
  Ti  Ti2980  1  0.43103592  0.58329908  0.72703634  1.0
  Ti  Ti2981  1  0.43103592  0.70829908  0.72703634  1.0
  Ti  Ti2982  1  0.43103592  0.83329908  0.72703634  1.0
  Ti  Ti2983  1  0.43103592  0.95829908  0.72703634  1.0
  Ti  Ti2984  1  0.54214703  0.08329908  0.72703634  1.0
  Ti  Ti2985  1  0.54214703  0.20829908  0.72703634  1.0
  Ti  Ti2986  1  0.54214703  0.33329908  0.72703634  1.0
  Ti  Ti2987  1  0.54214703  0.45829908  0.72703634  1.0
  Ti  Ti2988  1  0.54214703  0.58329908  0.72703634  1.0
  Ti  Ti2989  1  0.54214703  0.70829908  0.72703634  1.0
  Ti  Ti2990  1  0.54214703  0.83329908  0.72703634  1.0
  Ti  Ti2991  1  0.54214703  0.95829908  0.72703634  1.0
  Ti  Ti2992  1  0.65325814  0.08329908  0.72703634  1.0
  Ti  Ti2993  1  0.65325814  0.20829908  0.72703634  1.0
  Ti  Ti2994  1  0.65325814  0.33329908  0.72703634  1.0
  Ti  Ti2995  1  0.65325814  0.45829908  0.72703634  1.0
  Ti  Ti2996  1  0.65325814  0.58329908  0.72703634  1.0
  Ti  Ti2997  1  0.65325814  0.70829908  0.72703634  1.0
  Ti  Ti2998  1  0.65325814  0.83329908  0.72703634  1.0
  Ti  Ti2999  1  0.65325814  0.95829908  0.72703634  1.0
  Ti  Ti3000  1  0.76436925  0.08329908  0.72703634  1.0
  Ti  Ti3001  1  0.76436925  0.20829908  0.72703634  1.0
  Ti  Ti3002  1  0.76436925  0.33329908  0.72703634  1.0
  Ti  Ti3003  1  0.76436925  0.45829908  0.72703634  1.0
  Ti  Ti3004  1  0.76436925  0.58329908  0.72703634  1.0
  Ti  Ti3005  1  0.76436925  0.70829908  0.72703634  1.0
  Ti  Ti3006  1  0.76436925  0.83329908  0.72703634  1.0
  Ti  Ti3007  1  0.76436925  0.95829908  0.72703634  1.0
  Ti  Ti3008  1  0.87548036  0.08329908  0.72703634  1.0
  Ti  Ti3009  1  0.87548036  0.20829908  0.72703634  1.0
  Ti  Ti3010  1  0.87548036  0.33329908  0.72703634  1.0
  Ti  Ti3011  1  0.87548036  0.45829908  0.72703634  1.0
  Ti  Ti3012  1  0.87548036  0.58329908  0.72703634  1.0
  Ti  Ti3013  1  0.87548036  0.70829908  0.72703634  1.0
  Ti  Ti3014  1  0.87548036  0.83329908  0.72703634  1.0
  Ti  Ti3015  1  0.87548036  0.95829908  0.72703634  1.0
  Ti  Ti3016  1  0.98659148  0.08329908  0.72703634  1.0
  Ti  Ti3017  1  0.98659148  0.20829908  0.72703634  1.0
  Ti  Ti3018  1  0.98659148  0.33329908  0.72703634  1.0
  Ti  Ti3019  1  0.98659148  0.45829908  0.72703634  1.0
  Ti  Ti3020  1  0.98659148  0.58329908  0.72703634  1.0
  Ti  Ti3021  1  0.98659148  0.70829908  0.72703634  1.0
  Ti  Ti3022  1  0.98659148  0.83329908  0.72703634  1.0
  Ti  Ti3023  1  0.98659148  0.95829908  0.72703634  1.0
  Ti  Ti3024  1  0.08748260  0.02079908  0.70153509  1.0
  Ti  Ti3025  1  0.08748260  0.14579908  0.70153509  1.0
  Ti  Ti3026  1  0.08748260  0.27079908  0.70153509  1.0
  Ti  Ti3027  1  0.08748260  0.39579908  0.70153509  1.0
  Ti  Ti3028  1  0.08748260  0.52079908  0.70153509  1.0
  Ti  Ti3029  1  0.08748260  0.64579908  0.70153509  1.0
  Ti  Ti3030  1  0.08748260  0.77079908  0.70153509  1.0
  Ti  Ti3031  1  0.08748260  0.89579908  0.70153509  1.0
  Ti  Ti3032  1  0.19859371  0.02079908  0.70153509  1.0
  Ti  Ti3033  1  0.19859371  0.14579908  0.70153509  1.0
  Ti  Ti3034  1  0.19859371  0.27079908  0.70153509  1.0
  Ti  Ti3035  1  0.19859371  0.39579908  0.70153509  1.0
  Ti  Ti3036  1  0.19859371  0.52079908  0.70153509  1.0
  Ti  Ti3037  1  0.19859371  0.64579908  0.70153509  1.0
  Ti  Ti3038  1  0.19859371  0.77079908  0.70153509  1.0
  Ti  Ti3039  1  0.19859371  0.89579908  0.70153509  1.0
  Ti  Ti3040  1  0.30970482  0.02079908  0.70153509  1.0
  Ti  Ti3041  1  0.30970482  0.14579908  0.70153509  1.0
  Ti  Ti3042  1  0.30970482  0.27079908  0.70153509  1.0
  Ti  Ti3043  1  0.30970482  0.39579908  0.70153509  1.0
  Ti  Ti3044  1  0.30970482  0.52079908  0.70153509  1.0
  Ti  Ti3045  1  0.30970482  0.64579908  0.70153509  1.0
  Ti  Ti3046  1  0.30970482  0.77079908  0.70153509  1.0
  Ti  Ti3047  1  0.30970482  0.89579908  0.70153509  1.0
  Ti  Ti3048  1  0.42081593  0.02079908  0.70153509  1.0
  Ti  Ti3049  1  0.42081593  0.14579908  0.70153509  1.0
  Ti  Ti3050  1  0.42081593  0.27079908  0.70153509  1.0
  Ti  Ti3051  1  0.42081593  0.39579908  0.70153509  1.0
  Ti  Ti3052  1  0.42081593  0.52079908  0.70153509  1.0
  Ti  Ti3053  1  0.42081593  0.64579908  0.70153509  1.0
  Ti  Ti3054  1  0.42081593  0.77079908  0.70153509  1.0
  Ti  Ti3055  1  0.42081593  0.89579908  0.70153509  1.0
  Ti  Ti3056  1  0.53192704  0.02079908  0.70153509  1.0
  Ti  Ti3057  1  0.53192704  0.14579908  0.70153509  1.0
  Ti  Ti3058  1  0.53192704  0.27079908  0.70153509  1.0
  Ti  Ti3059  1  0.53192704  0.39579908  0.70153509  1.0
  Ti  Ti3060  1  0.53192704  0.52079908  0.70153509  1.0
  Ti  Ti3061  1  0.53192704  0.64579908  0.70153509  1.0
  Ti  Ti3062  1  0.53192704  0.77079908  0.70153509  1.0
  Ti  Ti3063  1  0.53192704  0.89579908  0.70153509  1.0
  Ti  Ti3064  1  0.64303815  0.02079908  0.70153509  1.0
  Ti  Ti3065  1  0.64303815  0.14579908  0.70153509  1.0
  Ti  Ti3066  1  0.64303815  0.27079908  0.70153509  1.0
  Ti  Ti3067  1  0.64303815  0.39579908  0.70153509  1.0
  Ti  Ti3068  1  0.64303815  0.52079908  0.70153509  1.0
  Ti  Ti3069  1  0.64303815  0.64579908  0.70153509  1.0
  Ti  Ti3070  1  0.64303815  0.77079908  0.70153509  1.0
  Ti  Ti3071  1  0.64303815  0.89579908  0.70153509  1.0
  Ti  Ti3072  1  0.75414927  0.02079908  0.70153509  1.0
  Ti  Ti3073  1  0.75414927  0.14579908  0.70153509  1.0
  Ti  Ti3074  1  0.75414927  0.27079908  0.70153509  1.0
  Ti  Ti3075  1  0.75414927  0.39579908  0.70153509  1.0
  Ti  Ti3076  1  0.75414927  0.52079908  0.70153509  1.0
  Ti  Ti3077  1  0.75414927  0.64579908  0.70153509  1.0
  Ti  Ti3078  1  0.75414927  0.77079908  0.70153509  1.0
  Ti  Ti3079  1  0.75414927  0.89579908  0.70153509  1.0
  Ti  Ti3080  1  0.86526038  0.02079908  0.70153509  1.0
  Ti  Ti3081  1  0.86526038  0.14579908  0.70153509  1.0
  Ti  Ti3082  1  0.86526038  0.27079908  0.70153509  1.0
  Ti  Ti3083  1  0.86526038  0.39579908  0.70153509  1.0
  Ti  Ti3084  1  0.86526038  0.52079908  0.70153509  1.0
  Ti  Ti3085  1  0.86526038  0.64579908  0.70153509  1.0
  Ti  Ti3086  1  0.86526038  0.77079908  0.70153509  1.0
  Ti  Ti3087  1  0.86526038  0.89579908  0.70153509  1.0
  Ti  Ti3088  1  0.97637149  0.02079908  0.70153509  1.0
  Ti  Ti3089  1  0.97637149  0.14579908  0.70153509  1.0
  Ti  Ti3090  1  0.97637149  0.27079908  0.70153509  1.0
  Ti  Ti3091  1  0.97637149  0.39579908  0.70153509  1.0
  Ti  Ti3092  1  0.97637149  0.52079908  0.70153509  1.0
  Ti  Ti3093  1  0.97637149  0.64579908  0.70153509  1.0
  Ti  Ti3094  1  0.97637149  0.77079908  0.70153509  1.0
  Ti  Ti3095  1  0.97637149  0.89579908  0.70153509  1.0
  Ti  Ti3096  1  0.06102757  0.02079908  0.65391604  1.0
  Ti  Ti3097  1  0.06102757  0.14579908  0.65391604  1.0
  Ti  Ti3098  1  0.06102757  0.27079908  0.65391604  1.0
  Ti  Ti3099  1  0.06102757  0.39579908  0.65391604  1.0
  Ti  Ti3100  1  0.06102757  0.52079908  0.65391604  1.0
  Ti  Ti3101  1  0.06102757  0.64579908  0.65391604  1.0
  Ti  Ti3102  1  0.06102757  0.77079908  0.65391604  1.0
  Ti  Ti3103  1  0.06102757  0.89579908  0.65391604  1.0
  Ti  Ti3104  1  0.17213868  0.02079908  0.65391604  1.0
  Ti  Ti3105  1  0.17213868  0.14579908  0.65391604  1.0
  Ti  Ti3106  1  0.17213868  0.27079908  0.65391604  1.0
  Ti  Ti3107  1  0.17213868  0.39579908  0.65391604  1.0
  Ti  Ti3108  1  0.17213868  0.52079908  0.65391604  1.0
  Ti  Ti3109  1  0.17213868  0.64579908  0.65391604  1.0
  Ti  Ti3110  1  0.17213868  0.77079908  0.65391604  1.0
  Ti  Ti3111  1  0.17213868  0.89579908  0.65391604  1.0
  Ti  Ti3112  1  0.28324979  0.02079908  0.65391604  1.0
  Ti  Ti3113  1  0.28324979  0.14579908  0.65391604  1.0
  Ti  Ti3114  1  0.28324979  0.27079908  0.65391604  1.0
  Ti  Ti3115  1  0.28324979  0.39579908  0.65391604  1.0
  Ti  Ti3116  1  0.28324979  0.52079908  0.65391604  1.0
  Ti  Ti3117  1  0.28324979  0.64579908  0.65391604  1.0
  Ti  Ti3118  1  0.28324979  0.77079908  0.65391604  1.0
  Ti  Ti3119  1  0.28324979  0.89579908  0.65391604  1.0
  Ti  Ti3120  1  0.39436091  0.02079908  0.65391604  1.0
  Ti  Ti3121  1  0.39436091  0.14579908  0.65391604  1.0
  Ti  Ti3122  1  0.39436091  0.27079908  0.65391604  1.0
  Ti  Ti3123  1  0.39436091  0.39579908  0.65391604  1.0
  Ti  Ti3124  1  0.39436091  0.52079908  0.65391604  1.0
  Ti  Ti3125  1  0.39436091  0.64579908  0.65391604  1.0
  Ti  Ti3126  1  0.39436091  0.77079908  0.65391604  1.0
  Ti  Ti3127  1  0.39436091  0.89579908  0.65391604  1.0
  Ti  Ti3128  1  0.50547202  0.02079908  0.65391604  1.0
  Ti  Ti3129  1  0.50547202  0.14579908  0.65391604  1.0
  Ti  Ti3130  1  0.50547202  0.27079908  0.65391604  1.0
  Ti  Ti3131  1  0.50547202  0.39579908  0.65391604  1.0
  Ti  Ti3132  1  0.50547202  0.52079908  0.65391604  1.0
  Ti  Ti3133  1  0.50547202  0.64579908  0.65391604  1.0
  Ti  Ti3134  1  0.50547202  0.77079908  0.65391604  1.0
  Ti  Ti3135  1  0.50547202  0.89579908  0.65391604  1.0
  Ti  Ti3136  1  0.61658313  0.02079908  0.65391604  1.0
  Ti  Ti3137  1  0.61658313  0.14579908  0.65391604  1.0
  Ti  Ti3138  1  0.61658313  0.27079908  0.65391604  1.0
  Ti  Ti3139  1  0.61658313  0.39579908  0.65391604  1.0
  Ti  Ti3140  1  0.61658313  0.52079908  0.65391604  1.0
  Ti  Ti3141  1  0.61658313  0.64579908  0.65391604  1.0
  Ti  Ti3142  1  0.61658313  0.77079908  0.65391604  1.0
  Ti  Ti3143  1  0.61658313  0.89579908  0.65391604  1.0
  Ti  Ti3144  1  0.72769424  0.02079908  0.65391604  1.0
  Ti  Ti3145  1  0.72769424  0.14579908  0.65391604  1.0
  Ti  Ti3146  1  0.72769424  0.27079908  0.65391604  1.0
  Ti  Ti3147  1  0.72769424  0.39579908  0.65391604  1.0
  Ti  Ti3148  1  0.72769424  0.52079908  0.65391604  1.0
  Ti  Ti3149  1  0.72769424  0.64579908  0.65391604  1.0
  Ti  Ti3150  1  0.72769424  0.77079908  0.65391604  1.0
  Ti  Ti3151  1  0.72769424  0.89579908  0.65391604  1.0
  Ti  Ti3152  1  0.83880535  0.02079908  0.65391604  1.0
  Ti  Ti3153  1  0.83880535  0.14579908  0.65391604  1.0
  Ti  Ti3154  1  0.83880535  0.27079908  0.65391604  1.0
  Ti  Ti3155  1  0.83880535  0.39579908  0.65391604  1.0
  Ti  Ti3156  1  0.83880535  0.52079908  0.65391604  1.0
  Ti  Ti3157  1  0.83880535  0.64579908  0.65391604  1.0
  Ti  Ti3158  1  0.83880535  0.77079908  0.65391604  1.0
  Ti  Ti3159  1  0.83880535  0.89579908  0.65391604  1.0
  Ti  Ti3160  1  0.94991646  0.02079908  0.65391604  1.0
  Ti  Ti3161  1  0.94991646  0.14579908  0.65391604  1.0
  Ti  Ti3162  1  0.94991646  0.27079908  0.65391604  1.0
  Ti  Ti3163  1  0.94991646  0.39579908  0.65391604  1.0
  Ti  Ti3164  1  0.94991646  0.52079908  0.65391604  1.0
  Ti  Ti3165  1  0.94991646  0.64579908  0.65391604  1.0
  Ti  Ti3166  1  0.94991646  0.77079908  0.65391604  1.0
  Ti  Ti3167  1  0.94991646  0.89579908  0.65391604  1.0
  Ti  Ti3168  1  0.00282651  0.02079908  0.74915413  1.0
  Ti  Ti3169  1  0.00282651  0.14579908  0.74915413  1.0
  Ti  Ti3170  1  0.00282651  0.27079908  0.74915413  1.0
  Ti  Ti3171  1  0.00282651  0.39579908  0.74915413  1.0
  Ti  Ti3172  1  0.00282651  0.52079908  0.74915413  1.0
  Ti  Ti3173  1  0.00282651  0.64579908  0.74915413  1.0
  Ti  Ti3174  1  0.00282651  0.77079908  0.74915413  1.0
  Ti  Ti3175  1  0.00282651  0.89579908  0.74915413  1.0
  Ti  Ti3176  1  0.11393763  0.02079908  0.74915413  1.0
  Ti  Ti3177  1  0.11393763  0.14579908  0.74915413  1.0
  Ti  Ti3178  1  0.11393763  0.27079908  0.74915413  1.0
  Ti  Ti3179  1  0.11393763  0.39579908  0.74915413  1.0
  Ti  Ti3180  1  0.11393763  0.52079908  0.74915413  1.0
  Ti  Ti3181  1  0.11393763  0.64579908  0.74915413  1.0
  Ti  Ti3182  1  0.11393763  0.77079908  0.74915413  1.0
  Ti  Ti3183  1  0.11393763  0.89579908  0.74915413  1.0
  Ti  Ti3184  1  0.22504874  0.02079908  0.74915413  1.0
  Ti  Ti3185  1  0.22504874  0.14579908  0.74915413  1.0
  Ti  Ti3186  1  0.22504874  0.27079908  0.74915413  1.0
  Ti  Ti3187  1  0.22504874  0.39579908  0.74915413  1.0
  Ti  Ti3188  1  0.22504874  0.52079908  0.74915413  1.0
  Ti  Ti3189  1  0.22504874  0.64579908  0.74915413  1.0
  Ti  Ti3190  1  0.22504874  0.77079908  0.74915413  1.0
  Ti  Ti3191  1  0.22504874  0.89579908  0.74915413  1.0
  Ti  Ti3192  1  0.33615985  0.02079908  0.74915413  1.0
  Ti  Ti3193  1  0.33615985  0.14579908  0.74915413  1.0
  Ti  Ti3194  1  0.33615985  0.27079908  0.74915413  1.0
  Ti  Ti3195  1  0.33615985  0.39579908  0.74915413  1.0
  Ti  Ti3196  1  0.33615985  0.52079908  0.74915413  1.0
  Ti  Ti3197  1  0.33615985  0.64579908  0.74915413  1.0
  Ti  Ti3198  1  0.33615985  0.77079908  0.74915413  1.0
  Ti  Ti3199  1  0.33615985  0.89579908  0.74915413  1.0
  Ti  Ti3200  1  0.44727096  0.02079908  0.74915413  1.0
  Ti  Ti3201  1  0.44727096  0.14579908  0.74915413  1.0
  Ti  Ti3202  1  0.44727096  0.27079908  0.74915413  1.0
  Ti  Ti3203  1  0.44727096  0.39579908  0.74915413  1.0
  Ti  Ti3204  1  0.44727096  0.52079908  0.74915413  1.0
  Ti  Ti3205  1  0.44727096  0.64579908  0.74915413  1.0
  Ti  Ti3206  1  0.44727096  0.77079908  0.74915413  1.0
  Ti  Ti3207  1  0.44727096  0.89579908  0.74915413  1.0
  Ti  Ti3208  1  0.55838207  0.02079908  0.74915413  1.0
  Ti  Ti3209  1  0.55838207  0.14579908  0.74915413  1.0
  Ti  Ti3210  1  0.55838207  0.27079908  0.74915413  1.0
  Ti  Ti3211  1  0.55838207  0.39579908  0.74915413  1.0
  Ti  Ti3212  1  0.55838207  0.52079908  0.74915413  1.0
  Ti  Ti3213  1  0.55838207  0.64579908  0.74915413  1.0
  Ti  Ti3214  1  0.55838207  0.77079908  0.74915413  1.0
  Ti  Ti3215  1  0.55838207  0.89579908  0.74915413  1.0
  Ti  Ti3216  1  0.66949318  0.02079908  0.74915413  1.0
  Ti  Ti3217  1  0.66949318  0.14579908  0.74915413  1.0
  Ti  Ti3218  1  0.66949318  0.27079908  0.74915413  1.0
  Ti  Ti3219  1  0.66949318  0.39579908  0.74915413  1.0
  Ti  Ti3220  1  0.66949318  0.52079908  0.74915413  1.0
  Ti  Ti3221  1  0.66949318  0.64579908  0.74915413  1.0
  Ti  Ti3222  1  0.66949318  0.77079908  0.74915413  1.0
  Ti  Ti3223  1  0.66949318  0.89579908  0.74915413  1.0
  Ti  Ti3224  1  0.78060429  0.02079908  0.74915413  1.0
  Ti  Ti3225  1  0.78060429  0.14579908  0.74915413  1.0
  Ti  Ti3226  1  0.78060429  0.27079908  0.74915413  1.0
  Ti  Ti3227  1  0.78060429  0.39579908  0.74915413  1.0
  Ti  Ti3228  1  0.78060429  0.52079908  0.74915413  1.0
  Ti  Ti3229  1  0.78060429  0.64579908  0.74915413  1.0
  Ti  Ti3230  1  0.78060429  0.77079908  0.74915413  1.0
  Ti  Ti3231  1  0.78060429  0.89579908  0.74915413  1.0
  Ti  Ti3232  1  0.89171540  0.02079908  0.74915413  1.0
  Ti  Ti3233  1  0.89171540  0.14579908  0.74915413  1.0
  Ti  Ti3234  1  0.89171540  0.27079908  0.74915413  1.0
  Ti  Ti3235  1  0.89171540  0.39579908  0.74915413  1.0
  Ti  Ti3236  1  0.89171540  0.52079908  0.74915413  1.0
  Ti  Ti3237  1  0.89171540  0.64579908  0.74915413  1.0
  Ti  Ti3238  1  0.89171540  0.77079908  0.74915413  1.0
  Ti  Ti3239  1  0.89171540  0.89579908  0.74915413  1.0
  Ti  Ti3240  1  0.00246449  0.10420092  0.65560777  1.0
  Ti  Ti3241  1  0.00246449  0.22920092  0.65560777  1.0
  Ti  Ti3242  1  0.00246449  0.35420092  0.65560777  1.0
  Ti  Ti3243  1  0.00246449  0.47920092  0.65560777  1.0
  Ti  Ti3244  1  0.00246449  0.60420092  0.65560777  1.0
  Ti  Ti3245  1  0.00246449  0.72920092  0.65560777  1.0
  Ti  Ti3246  1  0.00246449  0.85420092  0.65560777  1.0
  Ti  Ti3247  1  0.00246449  0.97920092  0.65560777  1.0
  Ti  Ti3248  1  0.11357560  0.10420092  0.65560777  1.0
  Ti  Ti3249  1  0.11357560  0.22920092  0.65560777  1.0
  Ti  Ti3250  1  0.11357560  0.35420092  0.65560777  1.0
  Ti  Ti3251  1  0.11357560  0.47920092  0.65560777  1.0
  Ti  Ti3252  1  0.11357560  0.60420092  0.65560777  1.0
  Ti  Ti3253  1  0.11357560  0.72920092  0.65560777  1.0
  Ti  Ti3254  1  0.11357560  0.85420092  0.65560777  1.0
  Ti  Ti3255  1  0.11357560  0.97920092  0.65560777  1.0
  Ti  Ti3256  1  0.22468671  0.10420092  0.65560777  1.0
  Ti  Ti3257  1  0.22468671  0.22920092  0.65560777  1.0
  Ti  Ti3258  1  0.22468671  0.35420092  0.65560777  1.0
  Ti  Ti3259  1  0.22468671  0.47920092  0.65560777  1.0
  Ti  Ti3260  1  0.22468671  0.60420092  0.65560777  1.0
  Ti  Ti3261  1  0.22468671  0.72920092  0.65560777  1.0
  Ti  Ti3262  1  0.22468671  0.85420092  0.65560777  1.0
  Ti  Ti3263  1  0.22468671  0.97920092  0.65560777  1.0
  Ti  Ti3264  1  0.33579782  0.10420092  0.65560777  1.0
  Ti  Ti3265  1  0.33579782  0.22920092  0.65560777  1.0
  Ti  Ti3266  1  0.33579782  0.35420092  0.65560777  1.0
  Ti  Ti3267  1  0.33579782  0.47920092  0.65560777  1.0
  Ti  Ti3268  1  0.33579782  0.60420092  0.65560777  1.0
  Ti  Ti3269  1  0.33579782  0.72920092  0.65560777  1.0
  Ti  Ti3270  1  0.33579782  0.85420092  0.65560777  1.0
  Ti  Ti3271  1  0.33579782  0.97920092  0.65560777  1.0
  Ti  Ti3272  1  0.44690894  0.10420092  0.65560777  1.0
  Ti  Ti3273  1  0.44690894  0.22920092  0.65560777  1.0
  Ti  Ti3274  1  0.44690894  0.35420092  0.65560777  1.0
  Ti  Ti3275  1  0.44690894  0.47920092  0.65560777  1.0
  Ti  Ti3276  1  0.44690894  0.60420092  0.65560777  1.0
  Ti  Ti3277  1  0.44690894  0.72920092  0.65560777  1.0
  Ti  Ti3278  1  0.44690894  0.85420092  0.65560777  1.0
  Ti  Ti3279  1  0.44690894  0.97920092  0.65560777  1.0
  Ti  Ti3280  1  0.55802005  0.10420092  0.65560777  1.0
  Ti  Ti3281  1  0.55802005  0.22920092  0.65560777  1.0
  Ti  Ti3282  1  0.55802005  0.35420092  0.65560777  1.0
  Ti  Ti3283  1  0.55802005  0.47920092  0.65560777  1.0
  Ti  Ti3284  1  0.55802005  0.60420092  0.65560777  1.0
  Ti  Ti3285  1  0.55802005  0.72920092  0.65560777  1.0
  Ti  Ti3286  1  0.55802005  0.85420092  0.65560777  1.0
  Ti  Ti3287  1  0.55802005  0.97920092  0.65560777  1.0
  Ti  Ti3288  1  0.66913116  0.10420092  0.65560777  1.0
  Ti  Ti3289  1  0.66913116  0.22920092  0.65560777  1.0
  Ti  Ti3290  1  0.66913116  0.35420092  0.65560777  1.0
  Ti  Ti3291  1  0.66913116  0.47920092  0.65560777  1.0
  Ti  Ti3292  1  0.66913116  0.60420092  0.65560777  1.0
  Ti  Ti3293  1  0.66913116  0.72920092  0.65560777  1.0
  Ti  Ti3294  1  0.66913116  0.85420092  0.65560777  1.0
  Ti  Ti3295  1  0.66913116  0.97920092  0.65560777  1.0
  Ti  Ti3296  1  0.78024227  0.10420092  0.65560777  1.0
  Ti  Ti3297  1  0.78024227  0.22920092  0.65560777  1.0
  Ti  Ti3298  1  0.78024227  0.35420092  0.65560777  1.0
  Ti  Ti3299  1  0.78024227  0.47920092  0.65560777  1.0
  Ti  Ti3300  1  0.78024227  0.60420092  0.65560777  1.0
  Ti  Ti3301  1  0.78024227  0.72920092  0.65560777  1.0
  Ti  Ti3302  1  0.78024227  0.85420092  0.65560777  1.0
  Ti  Ti3303  1  0.78024227  0.97920092  0.65560777  1.0
  Ti  Ti3304  1  0.89135338  0.10420092  0.65560777  1.0
  Ti  Ti3305  1  0.89135338  0.22920092  0.65560777  1.0
  Ti  Ti3306  1  0.89135338  0.35420092  0.65560777  1.0
  Ti  Ti3307  1  0.89135338  0.47920092  0.65560777  1.0
  Ti  Ti3308  1  0.89135338  0.60420092  0.65560777  1.0
  Ti  Ti3309  1  0.89135338  0.72920092  0.65560777  1.0
  Ti  Ti3310  1  0.89135338  0.85420092  0.65560777  1.0
  Ti  Ti3311  1  0.89135338  0.97920092  0.65560777  1.0
  Ti  Ti3312  1  0.05537454  0.10420092  0.75084587  1.0
  Ti  Ti3313  1  0.05537454  0.22920092  0.75084587  1.0
  Ti  Ti3314  1  0.05537454  0.35420092  0.75084587  1.0
  Ti  Ti3315  1  0.05537454  0.47920092  0.75084587  1.0
  Ti  Ti3316  1  0.05537454  0.60420092  0.75084587  1.0
  Ti  Ti3317  1  0.05537454  0.72920092  0.75084587  1.0
  Ti  Ti3318  1  0.05537454  0.85420092  0.75084587  1.0
  Ti  Ti3319  1  0.05537454  0.97920092  0.75084587  1.0
  Ti  Ti3320  1  0.16648566  0.10420092  0.75084587  1.0
  Ti  Ti3321  1  0.16648566  0.22920092  0.75084587  1.0
  Ti  Ti3322  1  0.16648566  0.35420092  0.75084587  1.0
  Ti  Ti3323  1  0.16648566  0.47920092  0.75084587  1.0
  Ti  Ti3324  1  0.16648566  0.60420092  0.75084587  1.0
  Ti  Ti3325  1  0.16648566  0.72920092  0.75084587  1.0
  Ti  Ti3326  1  0.16648566  0.85420092  0.75084587  1.0
  Ti  Ti3327  1  0.16648566  0.97920092  0.75084587  1.0
  Ti  Ti3328  1  0.27759677  0.10420092  0.75084587  1.0
  Ti  Ti3329  1  0.27759677  0.22920092  0.75084587  1.0
  Ti  Ti3330  1  0.27759677  0.35420092  0.75084587  1.0
  Ti  Ti3331  1  0.27759677  0.47920092  0.75084587  1.0
  Ti  Ti3332  1  0.27759677  0.60420092  0.75084587  1.0
  Ti  Ti3333  1  0.27759677  0.72920092  0.75084587  1.0
  Ti  Ti3334  1  0.27759677  0.85420092  0.75084587  1.0
  Ti  Ti3335  1  0.27759677  0.97920092  0.75084587  1.0
  Ti  Ti3336  1  0.38870788  0.10420092  0.75084587  1.0
  Ti  Ti3337  1  0.38870788  0.22920092  0.75084587  1.0
  Ti  Ti3338  1  0.38870788  0.35420092  0.75084587  1.0
  Ti  Ti3339  1  0.38870788  0.47920092  0.75084587  1.0
  Ti  Ti3340  1  0.38870788  0.60420092  0.75084587  1.0
  Ti  Ti3341  1  0.38870788  0.72920092  0.75084587  1.0
  Ti  Ti3342  1  0.38870788  0.85420092  0.75084587  1.0
  Ti  Ti3343  1  0.38870788  0.97920092  0.75084587  1.0
  Ti  Ti3344  1  0.49981899  0.10420092  0.75084587  1.0
  Ti  Ti3345  1  0.49981899  0.22920092  0.75084587  1.0
  Ti  Ti3346  1  0.49981899  0.35420092  0.75084587  1.0
  Ti  Ti3347  1  0.49981899  0.47920092  0.75084587  1.0
  Ti  Ti3348  1  0.49981899  0.60420092  0.75084587  1.0
  Ti  Ti3349  1  0.49981899  0.72920092  0.75084587  1.0
  Ti  Ti3350  1  0.49981899  0.85420092  0.75084587  1.0
  Ti  Ti3351  1  0.49981899  0.97920092  0.75084587  1.0
  Ti  Ti3352  1  0.61093010  0.10420092  0.75084587  1.0
  Ti  Ti3353  1  0.61093010  0.22920092  0.75084587  1.0
  Ti  Ti3354  1  0.61093010  0.35420092  0.75084587  1.0
  Ti  Ti3355  1  0.61093010  0.47920092  0.75084587  1.0
  Ti  Ti3356  1  0.61093010  0.60420092  0.75084587  1.0
  Ti  Ti3357  1  0.61093010  0.72920092  0.75084587  1.0
  Ti  Ti3358  1  0.61093010  0.85420092  0.75084587  1.0
  Ti  Ti3359  1  0.61093010  0.97920092  0.75084587  1.0
  Ti  Ti3360  1  0.72204121  0.10420092  0.75084587  1.0
  Ti  Ti3361  1  0.72204121  0.22920092  0.75084587  1.0
  Ti  Ti3362  1  0.72204121  0.35420092  0.75084587  1.0
  Ti  Ti3363  1  0.72204121  0.47920092  0.75084587  1.0
  Ti  Ti3364  1  0.72204121  0.60420092  0.75084587  1.0
  Ti  Ti3365  1  0.72204121  0.72920092  0.75084587  1.0
  Ti  Ti3366  1  0.72204121  0.85420092  0.75084587  1.0
  Ti  Ti3367  1  0.72204121  0.97920092  0.75084587  1.0
  Ti  Ti3368  1  0.83315232  0.10420092  0.75084587  1.0
  Ti  Ti3369  1  0.83315232  0.22920092  0.75084587  1.0
  Ti  Ti3370  1  0.83315232  0.35420092  0.75084587  1.0
  Ti  Ti3371  1  0.83315232  0.47920092  0.75084587  1.0
  Ti  Ti3372  1  0.83315232  0.60420092  0.75084587  1.0
  Ti  Ti3373  1  0.83315232  0.72920092  0.75084587  1.0
  Ti  Ti3374  1  0.83315232  0.85420092  0.75084587  1.0
  Ti  Ti3375  1  0.83315232  0.97920092  0.75084587  1.0
  Ti  Ti3376  1  0.94426343  0.10420092  0.75084587  1.0
  Ti  Ti3377  1  0.94426343  0.22920092  0.75084587  1.0
  Ti  Ti3378  1  0.94426343  0.35420092  0.75084587  1.0
  Ti  Ti3379  1  0.94426343  0.47920092  0.75084587  1.0
  Ti  Ti3380  1  0.94426343  0.60420092  0.75084587  1.0
  Ti  Ti3381  1  0.94426343  0.72920092  0.75084587  1.0
  Ti  Ti3382  1  0.94426343  0.85420092  0.75084587  1.0
  Ti  Ti3383  1  0.94426343  0.97920092  0.75084587  1.0
  Ti  Ti3384  1  0.02891952  0.10420092  0.70322682  1.0
  Ti  Ti3385  1  0.02891952  0.22920092  0.70322682  1.0
  Ti  Ti3386  1  0.02891952  0.35420092  0.70322682  1.0
  Ti  Ti3387  1  0.02891952  0.47920092  0.70322682  1.0
  Ti  Ti3388  1  0.02891952  0.60420092  0.70322682  1.0
  Ti  Ti3389  1  0.02891952  0.72920092  0.70322682  1.0
  Ti  Ti3390  1  0.02891952  0.85420092  0.70322682  1.0
  Ti  Ti3391  1  0.02891952  0.97920092  0.70322682  1.0
  Ti  Ti3392  1  0.14003063  0.10420092  0.70322682  1.0
  Ti  Ti3393  1  0.14003063  0.22920092  0.70322682  1.0
  Ti  Ti3394  1  0.14003063  0.35420092  0.70322682  1.0
  Ti  Ti3395  1  0.14003063  0.47920092  0.70322682  1.0
  Ti  Ti3396  1  0.14003063  0.60420092  0.70322682  1.0
  Ti  Ti3397  1  0.14003063  0.72920092  0.70322682  1.0
  Ti  Ti3398  1  0.14003063  0.85420092  0.70322682  1.0
  Ti  Ti3399  1  0.14003063  0.97920092  0.70322682  1.0
  Ti  Ti3400  1  0.25114174  0.10420092  0.70322682  1.0
  Ti  Ti3401  1  0.25114174  0.22920092  0.70322682  1.0
  Ti  Ti3402  1  0.25114174  0.35420092  0.70322682  1.0
  Ti  Ti3403  1  0.25114174  0.47920092  0.70322682  1.0
  Ti  Ti3404  1  0.25114174  0.60420092  0.70322682  1.0
  Ti  Ti3405  1  0.25114174  0.72920092  0.70322682  1.0
  Ti  Ti3406  1  0.25114174  0.85420092  0.70322682  1.0
  Ti  Ti3407  1  0.25114174  0.97920092  0.70322682  1.0
  Ti  Ti3408  1  0.36225285  0.10420092  0.70322682  1.0
  Ti  Ti3409  1  0.36225285  0.22920092  0.70322682  1.0
  Ti  Ti3410  1  0.36225285  0.35420092  0.70322682  1.0
  Ti  Ti3411  1  0.36225285  0.47920092  0.70322682  1.0
  Ti  Ti3412  1  0.36225285  0.60420092  0.70322682  1.0
  Ti  Ti3413  1  0.36225285  0.72920092  0.70322682  1.0
  Ti  Ti3414  1  0.36225285  0.85420092  0.70322682  1.0
  Ti  Ti3415  1  0.36225285  0.97920092  0.70322682  1.0
  Ti  Ti3416  1  0.47336396  0.10420092  0.70322682  1.0
  Ti  Ti3417  1  0.47336396  0.22920092  0.70322682  1.0
  Ti  Ti3418  1  0.47336396  0.35420092  0.70322682  1.0
  Ti  Ti3419  1  0.47336396  0.47920092  0.70322682  1.0
  Ti  Ti3420  1  0.47336396  0.60420092  0.70322682  1.0
  Ti  Ti3421  1  0.47336396  0.72920092  0.70322682  1.0
  Ti  Ti3422  1  0.47336396  0.85420092  0.70322682  1.0
  Ti  Ti3423  1  0.47336396  0.97920092  0.70322682  1.0
  Ti  Ti3424  1  0.58447507  0.10420092  0.70322682  1.0
  Ti  Ti3425  1  0.58447507  0.22920092  0.70322682  1.0
  Ti  Ti3426  1  0.58447507  0.35420092  0.70322682  1.0
  Ti  Ti3427  1  0.58447507  0.47920092  0.70322682  1.0
  Ti  Ti3428  1  0.58447507  0.60420092  0.70322682  1.0
  Ti  Ti3429  1  0.58447507  0.72920092  0.70322682  1.0
  Ti  Ti3430  1  0.58447507  0.85420092  0.70322682  1.0
  Ti  Ti3431  1  0.58447507  0.97920092  0.70322682  1.0
  Ti  Ti3432  1  0.69558618  0.10420092  0.70322682  1.0
  Ti  Ti3433  1  0.69558618  0.22920092  0.70322682  1.0
  Ti  Ti3434  1  0.69558618  0.35420092  0.70322682  1.0
  Ti  Ti3435  1  0.69558618  0.47920092  0.70322682  1.0
  Ti  Ti3436  1  0.69558618  0.60420092  0.70322682  1.0
  Ti  Ti3437  1  0.69558618  0.72920092  0.70322682  1.0
  Ti  Ti3438  1  0.69558618  0.85420092  0.70322682  1.0
  Ti  Ti3439  1  0.69558618  0.97920092  0.70322682  1.0
  Ti  Ti3440  1  0.80669730  0.10420092  0.70322682  1.0
  Ti  Ti3441  1  0.80669730  0.22920092  0.70322682  1.0
  Ti  Ti3442  1  0.80669730  0.35420092  0.70322682  1.0
  Ti  Ti3443  1  0.80669730  0.47920092  0.70322682  1.0
  Ti  Ti3444  1  0.80669730  0.60420092  0.70322682  1.0
  Ti  Ti3445  1  0.80669730  0.72920092  0.70322682  1.0
  Ti  Ti3446  1  0.80669730  0.85420092  0.70322682  1.0
  Ti  Ti3447  1  0.80669730  0.97920092  0.70322682  1.0
  Ti  Ti3448  1  0.91780841  0.10420092  0.70322682  1.0
  Ti  Ti3449  1  0.91780841  0.22920092  0.70322682  1.0
  Ti  Ti3450  1  0.91780841  0.35420092  0.70322682  1.0
  Ti  Ti3451  1  0.91780841  0.47920092  0.70322682  1.0
  Ti  Ti3452  1  0.91780841  0.60420092  0.70322682  1.0
  Ti  Ti3453  1  0.91780841  0.72920092  0.70322682  1.0
  Ti  Ti3454  1  0.91780841  0.85420092  0.70322682  1.0
  Ti  Ti3455  1  0.91780841  0.97920092  0.70322682  1.0
  P  P3456  1  0.08382980  0.10787809  0.26608978  1.0
  P  P3457  1  0.08382980  0.23287809  0.26608978  1.0
  P  P3458  1  0.08382980  0.35787809  0.26608978  1.0
  P  P3459  1  0.08382980  0.48287809  0.26608978  1.0
  P  P3460  1  0.08382980  0.60787809  0.26608978  1.0
  P  P3461  1  0.08382980  0.73287809  0.26608978  1.0
  P  P3462  1  0.08382980  0.85787809  0.26608978  1.0
  P  P3463  1  0.08382980  0.98287809  0.26608978  1.0
  P  P3464  1  0.19494092  0.10787809  0.26608978  1.0
  P  P3465  1  0.19494092  0.23287809  0.26608978  1.0
  P  P3466  1  0.19494092  0.35787809  0.26608978  1.0
  P  P3467  1  0.19494092  0.48287809  0.26608978  1.0
  P  P3468  1  0.19494092  0.60787809  0.26608978  1.0
  P  P3469  1  0.19494092  0.73287809  0.26608978  1.0
  P  P3470  1  0.19494092  0.85787809  0.26608978  1.0
  P  P3471  1  0.19494092  0.98287809  0.26608978  1.0
  P  P3472  1  0.30605203  0.10787809  0.26608978  1.0
  P  P3473  1  0.30605203  0.23287809  0.26608978  1.0
  P  P3474  1  0.30605203  0.35787809  0.26608978  1.0
  P  P3475  1  0.30605203  0.48287809  0.26608978  1.0
  P  P3476  1  0.30605203  0.60787809  0.26608978  1.0
  P  P3477  1  0.30605203  0.73287809  0.26608978  1.0
  P  P3478  1  0.30605203  0.85787809  0.26608978  1.0
  P  P3479  1  0.30605203  0.98287809  0.26608978  1.0
  P  P3480  1  0.41716314  0.10787809  0.26608978  1.0
  P  P3481  1  0.41716314  0.23287809  0.26608978  1.0
  P  P3482  1  0.41716314  0.35787809  0.26608978  1.0
  P  P3483  1  0.41716314  0.48287809  0.26608978  1.0
  P  P3484  1  0.41716314  0.60787809  0.26608978  1.0
  P  P3485  1  0.41716314  0.73287809  0.26608978  1.0
  P  P3486  1  0.41716314  0.85787809  0.26608978  1.0
  P  P3487  1  0.41716314  0.98287809  0.26608978  1.0
  P  P3488  1  0.52827425  0.10787809  0.26608978  1.0
  P  P3489  1  0.52827425  0.23287809  0.26608978  1.0
  P  P3490  1  0.52827425  0.35787809  0.26608978  1.0
  P  P3491  1  0.52827425  0.48287809  0.26608978  1.0
  P  P3492  1  0.52827425  0.60787809  0.26608978  1.0
  P  P3493  1  0.52827425  0.73287809  0.26608978  1.0
  P  P3494  1  0.52827425  0.85787809  0.26608978  1.0
  P  P3495  1  0.52827425  0.98287809  0.26608978  1.0
  P  P3496  1  0.63938536  0.10787809  0.26608978  1.0
  P  P3497  1  0.63938536  0.23287809  0.26608978  1.0
  P  P3498  1  0.63938536  0.35787809  0.26608978  1.0
  P  P3499  1  0.63938536  0.48287809  0.26608978  1.0
  P  P3500  1  0.63938536  0.60787809  0.26608978  1.0
  P  P3501  1  0.63938536  0.73287809  0.26608978  1.0
  P  P3502  1  0.63938536  0.85787809  0.26608978  1.0
  P  P3503  1  0.63938536  0.98287809  0.26608978  1.0
  P  P3504  1  0.75049647  0.10787809  0.26608978  1.0
  P  P3505  1  0.75049647  0.23287809  0.26608978  1.0
  P  P3506  1  0.75049647  0.35787809  0.26608978  1.0
  P  P3507  1  0.75049647  0.48287809  0.26608978  1.0
  P  P3508  1  0.75049647  0.60787809  0.26608978  1.0
  P  P3509  1  0.75049647  0.73287809  0.26608978  1.0
  P  P3510  1  0.75049647  0.85787809  0.26608978  1.0
  P  P3511  1  0.75049647  0.98287809  0.26608978  1.0
  P  P3512  1  0.86160758  0.10787809  0.26608978  1.0
  P  P3513  1  0.86160758  0.23287809  0.26608978  1.0
  P  P3514  1  0.86160758  0.35787809  0.26608978  1.0
  P  P3515  1  0.86160758  0.48287809  0.26608978  1.0
  P  P3516  1  0.86160758  0.60787809  0.26608978  1.0
  P  P3517  1  0.86160758  0.73287809  0.26608978  1.0
  P  P3518  1  0.86160758  0.85787809  0.26608978  1.0
  P  P3519  1  0.86160758  0.98287809  0.26608978  1.0
  P  P3520  1  0.97271869  0.10787809  0.26608978  1.0
  P  P3521  1  0.97271869  0.23287809  0.26608978  1.0
  P  P3522  1  0.97271869  0.35787809  0.26608978  1.0
  P  P3523  1  0.97271869  0.48287809  0.26608978  1.0
  P  P3524  1  0.97271869  0.60787809  0.26608978  1.0
  P  P3525  1  0.97271869  0.73287809  0.26608978  1.0
  P  P3526  1  0.97271869  0.85787809  0.26608978  1.0
  P  P3527  1  0.97271869  0.98287809  0.26608978  1.0
  P  P3528  1  0.05737478  0.10787809  0.21847074  1.0
  P  P3529  1  0.05737478  0.23287809  0.21847074  1.0
  P  P3530  1  0.05737478  0.35787809  0.21847074  1.0
  P  P3531  1  0.05737478  0.48287809  0.21847074  1.0
  P  P3532  1  0.05737478  0.60787809  0.21847074  1.0
  P  P3533  1  0.05737478  0.73287809  0.21847074  1.0
  P  P3534  1  0.05737478  0.85787809  0.21847074  1.0
  P  P3535  1  0.05737478  0.98287809  0.21847074  1.0
  P  P3536  1  0.16848589  0.10787809  0.21847074  1.0
  P  P3537  1  0.16848589  0.23287809  0.21847074  1.0
  P  P3538  1  0.16848589  0.35787809  0.21847074  1.0
  P  P3539  1  0.16848589  0.48287809  0.21847074  1.0
  P  P3540  1  0.16848589  0.60787809  0.21847074  1.0
  P  P3541  1  0.16848589  0.73287809  0.21847074  1.0
  P  P3542  1  0.16848589  0.85787809  0.21847074  1.0
  P  P3543  1  0.16848589  0.98287809  0.21847074  1.0
  P  P3544  1  0.27959700  0.10787809  0.21847074  1.0
  P  P3545  1  0.27959700  0.23287809  0.21847074  1.0
  P  P3546  1  0.27959700  0.35787809  0.21847074  1.0
  P  P3547  1  0.27959700  0.48287809  0.21847074  1.0
  P  P3548  1  0.27959700  0.60787809  0.21847074  1.0
  P  P3549  1  0.27959700  0.73287809  0.21847074  1.0
  P  P3550  1  0.27959700  0.85787809  0.21847074  1.0
  P  P3551  1  0.27959700  0.98287809  0.21847074  1.0
  P  P3552  1  0.39070811  0.10787809  0.21847074  1.0
  P  P3553  1  0.39070811  0.23287809  0.21847074  1.0
  P  P3554  1  0.39070811  0.35787809  0.21847074  1.0
  P  P3555  1  0.39070811  0.48287809  0.21847074  1.0
  P  P3556  1  0.39070811  0.60787809  0.21847074  1.0
  P  P3557  1  0.39070811  0.73287809  0.21847074  1.0
  P  P3558  1  0.39070811  0.85787809  0.21847074  1.0
  P  P3559  1  0.39070811  0.98287809  0.21847074  1.0
  P  P3560  1  0.50181922  0.10787809  0.21847074  1.0
  P  P3561  1  0.50181922  0.23287809  0.21847074  1.0
  P  P3562  1  0.50181922  0.35787809  0.21847074  1.0
  P  P3563  1  0.50181922  0.48287809  0.21847074  1.0
  P  P3564  1  0.50181922  0.60787809  0.21847074  1.0
  P  P3565  1  0.50181922  0.73287809  0.21847074  1.0
  P  P3566  1  0.50181922  0.85787809  0.21847074  1.0
  P  P3567  1  0.50181922  0.98287809  0.21847074  1.0
  P  P3568  1  0.61293033  0.10787809  0.21847074  1.0
  P  P3569  1  0.61293033  0.23287809  0.21847074  1.0
  P  P3570  1  0.61293033  0.35787809  0.21847074  1.0
  P  P3571  1  0.61293033  0.48287809  0.21847074  1.0
  P  P3572  1  0.61293033  0.60787809  0.21847074  1.0
  P  P3573  1  0.61293033  0.73287809  0.21847074  1.0
  P  P3574  1  0.61293033  0.85787809  0.21847074  1.0
  P  P3575  1  0.61293033  0.98287809  0.21847074  1.0
  P  P3576  1  0.72404144  0.10787809  0.21847074  1.0
  P  P3577  1  0.72404144  0.23287809  0.21847074  1.0
  P  P3578  1  0.72404144  0.35787809  0.21847074  1.0
  P  P3579  1  0.72404144  0.48287809  0.21847074  1.0
  P  P3580  1  0.72404144  0.60787809  0.21847074  1.0
  P  P3581  1  0.72404144  0.73287809  0.21847074  1.0
  P  P3582  1  0.72404144  0.85787809  0.21847074  1.0
  P  P3583  1  0.72404144  0.98287809  0.21847074  1.0
  P  P3584  1  0.83515256  0.10787809  0.21847074  1.0
  P  P3585  1  0.83515256  0.23287809  0.21847074  1.0
  P  P3586  1  0.83515256  0.35787809  0.21847074  1.0
  P  P3587  1  0.83515256  0.48287809  0.21847074  1.0
  P  P3588  1  0.83515256  0.60787809  0.21847074  1.0
  P  P3589  1  0.83515256  0.73287809  0.21847074  1.0
  P  P3590  1  0.83515256  0.85787809  0.21847074  1.0
  P  P3591  1  0.83515256  0.98287809  0.21847074  1.0
  P  P3592  1  0.94626367  0.10787809  0.21847074  1.0
  P  P3593  1  0.94626367  0.23287809  0.21847074  1.0
  P  P3594  1  0.94626367  0.35787809  0.21847074  1.0
  P  P3595  1  0.94626367  0.48287809  0.21847074  1.0
  P  P3596  1  0.94626367  0.60787809  0.21847074  1.0
  P  P3597  1  0.94626367  0.73287809  0.21847074  1.0
  P  P3598  1  0.94626367  0.85787809  0.21847074  1.0
  P  P3599  1  0.94626367  0.98287809  0.21847074  1.0
  P  P3600  1  0.11028483  0.10787809  0.31370883  1.0
  P  P3601  1  0.11028483  0.23287809  0.31370883  1.0
  P  P3602  1  0.11028483  0.35787809  0.31370883  1.0
  P  P3603  1  0.11028483  0.48287809  0.31370883  1.0
  P  P3604  1  0.11028483  0.60787809  0.31370883  1.0
  P  P3605  1  0.11028483  0.73287809  0.31370883  1.0
  P  P3606  1  0.11028483  0.85787809  0.31370883  1.0
  P  P3607  1  0.11028483  0.98287809  0.31370883  1.0
  P  P3608  1  0.22139594  0.10787809  0.31370883  1.0
  P  P3609  1  0.22139594  0.23287809  0.31370883  1.0
  P  P3610  1  0.22139594  0.35787809  0.31370883  1.0
  P  P3611  1  0.22139594  0.48287809  0.31370883  1.0
  P  P3612  1  0.22139594  0.60787809  0.31370883  1.0
  P  P3613  1  0.22139594  0.73287809  0.31370883  1.0
  P  P3614  1  0.22139594  0.85787809  0.31370883  1.0
  P  P3615  1  0.22139594  0.98287809  0.31370883  1.0
  P  P3616  1  0.33250705  0.10787809  0.31370883  1.0
  P  P3617  1  0.33250705  0.23287809  0.31370883  1.0
  P  P3618  1  0.33250705  0.35787809  0.31370883  1.0
  P  P3619  1  0.33250705  0.48287809  0.31370883  1.0
  P  P3620  1  0.33250705  0.60787809  0.31370883  1.0
  P  P3621  1  0.33250705  0.73287809  0.31370883  1.0
  P  P3622  1  0.33250705  0.85787809  0.31370883  1.0
  P  P3623  1  0.33250705  0.98287809  0.31370883  1.0
  P  P3624  1  0.44361816  0.10787809  0.31370883  1.0
  P  P3625  1  0.44361816  0.23287809  0.31370883  1.0
  P  P3626  1  0.44361816  0.35787809  0.31370883  1.0
  P  P3627  1  0.44361816  0.48287809  0.31370883  1.0
  P  P3628  1  0.44361816  0.60787809  0.31370883  1.0
  P  P3629  1  0.44361816  0.73287809  0.31370883  1.0
  P  P3630  1  0.44361816  0.85787809  0.31370883  1.0
  P  P3631  1  0.44361816  0.98287809  0.31370883  1.0
  P  P3632  1  0.55472927  0.10787809  0.31370883  1.0
  P  P3633  1  0.55472927  0.23287809  0.31370883  1.0
  P  P3634  1  0.55472927  0.35787809  0.31370883  1.0
  P  P3635  1  0.55472927  0.48287809  0.31370883  1.0
  P  P3636  1  0.55472927  0.60787809  0.31370883  1.0
  P  P3637  1  0.55472927  0.73287809  0.31370883  1.0
  P  P3638  1  0.55472927  0.85787809  0.31370883  1.0
  P  P3639  1  0.55472927  0.98287809  0.31370883  1.0
  P  P3640  1  0.66584039  0.10787809  0.31370883  1.0
  P  P3641  1  0.66584039  0.23287809  0.31370883  1.0
  P  P3642  1  0.66584039  0.35787809  0.31370883  1.0
  P  P3643  1  0.66584039  0.48287809  0.31370883  1.0
  P  P3644  1  0.66584039  0.60787809  0.31370883  1.0
  P  P3645  1  0.66584039  0.73287809  0.31370883  1.0
  P  P3646  1  0.66584039  0.85787809  0.31370883  1.0
  P  P3647  1  0.66584039  0.98287809  0.31370883  1.0
  P  P3648  1  0.77695150  0.10787809  0.31370883  1.0
  P  P3649  1  0.77695150  0.23287809  0.31370883  1.0
  P  P3650  1  0.77695150  0.35787809  0.31370883  1.0
  P  P3651  1  0.77695150  0.48287809  0.31370883  1.0
  P  P3652  1  0.77695150  0.60787809  0.31370883  1.0
  P  P3653  1  0.77695150  0.73287809  0.31370883  1.0
  P  P3654  1  0.77695150  0.85787809  0.31370883  1.0
  P  P3655  1  0.77695150  0.98287809  0.31370883  1.0
  P  P3656  1  0.88806261  0.10787809  0.31370883  1.0
  P  P3657  1  0.88806261  0.23287809  0.31370883  1.0
  P  P3658  1  0.88806261  0.35787809  0.31370883  1.0
  P  P3659  1  0.88806261  0.48287809  0.31370883  1.0
  P  P3660  1  0.88806261  0.60787809  0.31370883  1.0
  P  P3661  1  0.88806261  0.73287809  0.31370883  1.0
  P  P3662  1  0.88806261  0.85787809  0.31370883  1.0
  P  P3663  1  0.88806261  0.98287809  0.31370883  1.0
  P  P3664  1  0.99917372  0.10787809  0.31370883  1.0
  P  P3665  1  0.99917372  0.23287809  0.31370883  1.0
  P  P3666  1  0.99917372  0.35787809  0.31370883  1.0
  P  P3667  1  0.99917372  0.48287809  0.31370883  1.0
  P  P3668  1  0.99917372  0.60787809  0.31370883  1.0
  P  P3669  1  0.99917372  0.73287809  0.31370883  1.0
  P  P3670  1  0.99917372  0.85787809  0.31370883  1.0
  P  P3671  1  0.99917372  0.98287809  0.31370883  1.0
  P  P3672  1  0.08548237  0.01712191  0.23391022  1.0
  P  P3673  1  0.08548237  0.14212191  0.23391022  1.0
  P  P3674  1  0.08548237  0.26712191  0.23391022  1.0
  P  P3675  1  0.08548237  0.39212191  0.23391022  1.0
  P  P3676  1  0.08548237  0.51712191  0.23391022  1.0
  P  P3677  1  0.08548237  0.64212191  0.23391022  1.0
  P  P3678  1  0.08548237  0.76712191  0.23391022  1.0
  P  P3679  1  0.08548237  0.89212191  0.23391022  1.0
  P  P3680  1  0.19659348  0.01712191  0.23391022  1.0
  P  P3681  1  0.19659348  0.14212191  0.23391022  1.0
  P  P3682  1  0.19659348  0.26712191  0.23391022  1.0
  P  P3683  1  0.19659348  0.39212191  0.23391022  1.0
  P  P3684  1  0.19659348  0.51712191  0.23391022  1.0
  P  P3685  1  0.19659348  0.64212191  0.23391022  1.0
  P  P3686  1  0.19659348  0.76712191  0.23391022  1.0
  P  P3687  1  0.19659348  0.89212191  0.23391022  1.0
  P  P3688  1  0.30770459  0.01712191  0.23391022  1.0
  P  P3689  1  0.30770459  0.14212191  0.23391022  1.0
  P  P3690  1  0.30770459  0.26712191  0.23391022  1.0
  P  P3691  1  0.30770459  0.39212191  0.23391022  1.0
  P  P3692  1  0.30770459  0.51712191  0.23391022  1.0
  P  P3693  1  0.30770459  0.64212191  0.23391022  1.0
  P  P3694  1  0.30770459  0.76712191  0.23391022  1.0
  P  P3695  1  0.30770459  0.89212191  0.23391022  1.0
  P  P3696  1  0.41881570  0.01712191  0.23391022  1.0
  P  P3697  1  0.41881570  0.14212191  0.23391022  1.0
  P  P3698  1  0.41881570  0.26712191  0.23391022  1.0
  P  P3699  1  0.41881570  0.39212191  0.23391022  1.0
  P  P3700  1  0.41881570  0.51712191  0.23391022  1.0
  P  P3701  1  0.41881570  0.64212191  0.23391022  1.0
  P  P3702  1  0.41881570  0.76712191  0.23391022  1.0
  P  P3703  1  0.41881570  0.89212191  0.23391022  1.0
  P  P3704  1  0.52992681  0.01712191  0.23391022  1.0
  P  P3705  1  0.52992681  0.14212191  0.23391022  1.0
  P  P3706  1  0.52992681  0.26712191  0.23391022  1.0
  P  P3707  1  0.52992681  0.39212191  0.23391022  1.0
  P  P3708  1  0.52992681  0.51712191  0.23391022  1.0
  P  P3709  1  0.52992681  0.64212191  0.23391022  1.0
  P  P3710  1  0.52992681  0.76712191  0.23391022  1.0
  P  P3711  1  0.52992681  0.89212191  0.23391022  1.0
  P  P3712  1  0.64103792  0.01712191  0.23391022  1.0
  P  P3713  1  0.64103792  0.14212191  0.23391022  1.0
  P  P3714  1  0.64103792  0.26712191  0.23391022  1.0
  P  P3715  1  0.64103792  0.39212191  0.23391022  1.0
  P  P3716  1  0.64103792  0.51712191  0.23391022  1.0
  P  P3717  1  0.64103792  0.64212191  0.23391022  1.0
  P  P3718  1  0.64103792  0.76712191  0.23391022  1.0
  P  P3719  1  0.64103792  0.89212191  0.23391022  1.0
  P  P3720  1  0.75214903  0.01712191  0.23391022  1.0
  P  P3721  1  0.75214903  0.14212191  0.23391022  1.0
  P  P3722  1  0.75214903  0.26712191  0.23391022  1.0
  P  P3723  1  0.75214903  0.39212191  0.23391022  1.0
  P  P3724  1  0.75214903  0.51712191  0.23391022  1.0
  P  P3725  1  0.75214903  0.64212191  0.23391022  1.0
  P  P3726  1  0.75214903  0.76712191  0.23391022  1.0
  P  P3727  1  0.75214903  0.89212191  0.23391022  1.0
  P  P3728  1  0.86326014  0.01712191  0.23391022  1.0
  P  P3729  1  0.86326014  0.14212191  0.23391022  1.0
  P  P3730  1  0.86326014  0.26712191  0.23391022  1.0
  P  P3731  1  0.86326014  0.39212191  0.23391022  1.0
  P  P3732  1  0.86326014  0.51712191  0.23391022  1.0
  P  P3733  1  0.86326014  0.64212191  0.23391022  1.0
  P  P3734  1  0.86326014  0.76712191  0.23391022  1.0
  P  P3735  1  0.86326014  0.89212191  0.23391022  1.0
  P  P3736  1  0.97437125  0.01712191  0.23391022  1.0
  P  P3737  1  0.97437125  0.14212191  0.23391022  1.0
  P  P3738  1  0.97437125  0.26712191  0.23391022  1.0
  P  P3739  1  0.97437125  0.39212191  0.23391022  1.0
  P  P3740  1  0.97437125  0.51712191  0.23391022  1.0
  P  P3741  1  0.97437125  0.64212191  0.23391022  1.0
  P  P3742  1  0.97437125  0.76712191  0.23391022  1.0
  P  P3743  1  0.97437125  0.89212191  0.23391022  1.0
  P  P3744  1  0.02728131  0.01712191  0.32914831  1.0
  P  P3745  1  0.02728131  0.14212191  0.32914831  1.0
  P  P3746  1  0.02728131  0.26712191  0.32914831  1.0
  P  P3747  1  0.02728131  0.39212191  0.32914831  1.0
  P  P3748  1  0.02728131  0.51712191  0.32914831  1.0
  P  P3749  1  0.02728131  0.64212191  0.32914831  1.0
  P  P3750  1  0.02728131  0.76712191  0.32914831  1.0
  P  P3751  1  0.02728131  0.89212191  0.32914831  1.0
  P  P3752  1  0.13839242  0.01712191  0.32914831  1.0
  P  P3753  1  0.13839242  0.14212191  0.32914831  1.0
  P  P3754  1  0.13839242  0.26712191  0.32914831  1.0
  P  P3755  1  0.13839242  0.39212191  0.32914831  1.0
  P  P3756  1  0.13839242  0.51712191  0.32914831  1.0
  P  P3757  1  0.13839242  0.64212191  0.32914831  1.0
  P  P3758  1  0.13839242  0.76712191  0.32914831  1.0
  P  P3759  1  0.13839242  0.89212191  0.32914831  1.0
  P  P3760  1  0.24950353  0.01712191  0.32914831  1.0
  P  P3761  1  0.24950353  0.14212191  0.32914831  1.0
  P  P3762  1  0.24950353  0.26712191  0.32914831  1.0
  P  P3763  1  0.24950353  0.39212191  0.32914831  1.0
  P  P3764  1  0.24950353  0.51712191  0.32914831  1.0
  P  P3765  1  0.24950353  0.64212191  0.32914831  1.0
  P  P3766  1  0.24950353  0.76712191  0.32914831  1.0
  P  P3767  1  0.24950353  0.89212191  0.32914831  1.0
  P  P3768  1  0.36061464  0.01712191  0.32914831  1.0
  P  P3769  1  0.36061464  0.14212191  0.32914831  1.0
  P  P3770  1  0.36061464  0.26712191  0.32914831  1.0
  P  P3771  1  0.36061464  0.39212191  0.32914831  1.0
  P  P3772  1  0.36061464  0.51712191  0.32914831  1.0
  P  P3773  1  0.36061464  0.64212191  0.32914831  1.0
  P  P3774  1  0.36061464  0.76712191  0.32914831  1.0
  P  P3775  1  0.36061464  0.89212191  0.32914831  1.0
  P  P3776  1  0.47172575  0.01712191  0.32914831  1.0
  P  P3777  1  0.47172575  0.14212191  0.32914831  1.0
  P  P3778  1  0.47172575  0.26712191  0.32914831  1.0
  P  P3779  1  0.47172575  0.39212191  0.32914831  1.0
  P  P3780  1  0.47172575  0.51712191  0.32914831  1.0
  P  P3781  1  0.47172575  0.64212191  0.32914831  1.0
  P  P3782  1  0.47172575  0.76712191  0.32914831  1.0
  P  P3783  1  0.47172575  0.89212191  0.32914831  1.0
  P  P3784  1  0.58283686  0.01712191  0.32914831  1.0
  P  P3785  1  0.58283686  0.14212191  0.32914831  1.0
  P  P3786  1  0.58283686  0.26712191  0.32914831  1.0
  P  P3787  1  0.58283686  0.39212191  0.32914831  1.0
  P  P3788  1  0.58283686  0.51712191  0.32914831  1.0
  P  P3789  1  0.58283686  0.64212191  0.32914831  1.0
  P  P3790  1  0.58283686  0.76712191  0.32914831  1.0
  P  P3791  1  0.58283686  0.89212191  0.32914831  1.0
  P  P3792  1  0.69394797  0.01712191  0.32914831  1.0
  P  P3793  1  0.69394797  0.14212191  0.32914831  1.0
  P  P3794  1  0.69394797  0.26712191  0.32914831  1.0
  P  P3795  1  0.69394797  0.39212191  0.32914831  1.0
  P  P3796  1  0.69394797  0.51712191  0.32914831  1.0
  P  P3797  1  0.69394797  0.64212191  0.32914831  1.0
  P  P3798  1  0.69394797  0.76712191  0.32914831  1.0
  P  P3799  1  0.69394797  0.89212191  0.32914831  1.0
  P  P3800  1  0.80505908  0.01712191  0.32914831  1.0
  P  P3801  1  0.80505908  0.14212191  0.32914831  1.0
  P  P3802  1  0.80505908  0.26712191  0.32914831  1.0
  P  P3803  1  0.80505908  0.39212191  0.32914831  1.0
  P  P3804  1  0.80505908  0.51712191  0.32914831  1.0
  P  P3805  1  0.80505908  0.64212191  0.32914831  1.0
  P  P3806  1  0.80505908  0.76712191  0.32914831  1.0
  P  P3807  1  0.80505908  0.89212191  0.32914831  1.0
  P  P3808  1  0.91617020  0.01712191  0.32914831  1.0
  P  P3809  1  0.91617020  0.14212191  0.32914831  1.0
  P  P3810  1  0.91617020  0.26712191  0.32914831  1.0
  P  P3811  1  0.91617020  0.39212191  0.32914831  1.0
  P  P3812  1  0.91617020  0.51712191  0.32914831  1.0
  P  P3813  1  0.91617020  0.64212191  0.32914831  1.0
  P  P3814  1  0.91617020  0.76712191  0.32914831  1.0
  P  P3815  1  0.91617020  0.89212191  0.32914831  1.0
  P  P3816  1  0.00082628  0.01712191  0.28152926  1.0
  P  P3817  1  0.00082628  0.14212191  0.28152926  1.0
  P  P3818  1  0.00082628  0.26712191  0.28152926  1.0
  P  P3819  1  0.00082628  0.39212191  0.28152926  1.0
  P  P3820  1  0.00082628  0.51712191  0.28152926  1.0
  P  P3821  1  0.00082628  0.64212191  0.28152926  1.0
  P  P3822  1  0.00082628  0.76712191  0.28152926  1.0
  P  P3823  1  0.00082628  0.89212191  0.28152926  1.0
  P  P3824  1  0.11193739  0.01712191  0.28152926  1.0
  P  P3825  1  0.11193739  0.14212191  0.28152926  1.0
  P  P3826  1  0.11193739  0.26712191  0.28152926  1.0
  P  P3827  1  0.11193739  0.39212191  0.28152926  1.0
  P  P3828  1  0.11193739  0.51712191  0.28152926  1.0
  P  P3829  1  0.11193739  0.64212191  0.28152926  1.0
  P  P3830  1  0.11193739  0.76712191  0.28152926  1.0
  P  P3831  1  0.11193739  0.89212191  0.28152926  1.0
  P  P3832  1  0.22304850  0.01712191  0.28152926  1.0
  P  P3833  1  0.22304850  0.14212191  0.28152926  1.0
  P  P3834  1  0.22304850  0.26712191  0.28152926  1.0
  P  P3835  1  0.22304850  0.39212191  0.28152926  1.0
  P  P3836  1  0.22304850  0.51712191  0.28152926  1.0
  P  P3837  1  0.22304850  0.64212191  0.28152926  1.0
  P  P3838  1  0.22304850  0.76712191  0.28152926  1.0
  P  P3839  1  0.22304850  0.89212191  0.28152926  1.0
  P  P3840  1  0.33415961  0.01712191  0.28152926  1.0
  P  P3841  1  0.33415961  0.14212191  0.28152926  1.0
  P  P3842  1  0.33415961  0.26712191  0.28152926  1.0
  P  P3843  1  0.33415961  0.39212191  0.28152926  1.0
  P  P3844  1  0.33415961  0.51712191  0.28152926  1.0
  P  P3845  1  0.33415961  0.64212191  0.28152926  1.0
  P  P3846  1  0.33415961  0.76712191  0.28152926  1.0
  P  P3847  1  0.33415961  0.89212191  0.28152926  1.0
  P  P3848  1  0.44527073  0.01712191  0.28152926  1.0
  P  P3849  1  0.44527073  0.14212191  0.28152926  1.0
  P  P3850  1  0.44527073  0.26712191  0.28152926  1.0
  P  P3851  1  0.44527073  0.39212191  0.28152926  1.0
  P  P3852  1  0.44527073  0.51712191  0.28152926  1.0
  P  P3853  1  0.44527073  0.64212191  0.28152926  1.0
  P  P3854  1  0.44527073  0.76712191  0.28152926  1.0
  P  P3855  1  0.44527073  0.89212191  0.28152926  1.0
  P  P3856  1  0.55638184  0.01712191  0.28152926  1.0
  P  P3857  1  0.55638184  0.14212191  0.28152926  1.0
  P  P3858  1  0.55638184  0.26712191  0.28152926  1.0
  P  P3859  1  0.55638184  0.39212191  0.28152926  1.0
  P  P3860  1  0.55638184  0.51712191  0.28152926  1.0
  P  P3861  1  0.55638184  0.64212191  0.28152926  1.0
  P  P3862  1  0.55638184  0.76712191  0.28152926  1.0
  P  P3863  1  0.55638184  0.89212191  0.28152926  1.0
  P  P3864  1  0.66749295  0.01712191  0.28152926  1.0
  P  P3865  1  0.66749295  0.14212191  0.28152926  1.0
  P  P3866  1  0.66749295  0.26712191  0.28152926  1.0
  P  P3867  1  0.66749295  0.39212191  0.28152926  1.0
  P  P3868  1  0.66749295  0.51712191  0.28152926  1.0
  P  P3869  1  0.66749295  0.64212191  0.28152926  1.0
  P  P3870  1  0.66749295  0.76712191  0.28152926  1.0
  P  P3871  1  0.66749295  0.89212191  0.28152926  1.0
  P  P3872  1  0.77860406  0.01712191  0.28152926  1.0
  P  P3873  1  0.77860406  0.14212191  0.28152926  1.0
  P  P3874  1  0.77860406  0.26712191  0.28152926  1.0
  P  P3875  1  0.77860406  0.39212191  0.28152926  1.0
  P  P3876  1  0.77860406  0.51712191  0.28152926  1.0
  P  P3877  1  0.77860406  0.64212191  0.28152926  1.0
  P  P3878  1  0.77860406  0.76712191  0.28152926  1.0
  P  P3879  1  0.77860406  0.89212191  0.28152926  1.0
  P  P3880  1  0.88971517  0.01712191  0.28152926  1.0
  P  P3881  1  0.88971517  0.14212191  0.28152926  1.0
  P  P3882  1  0.88971517  0.26712191  0.28152926  1.0
  P  P3883  1  0.88971517  0.39212191  0.28152926  1.0
  P  P3884  1  0.88971517  0.51712191  0.28152926  1.0
  P  P3885  1  0.88971517  0.64212191  0.28152926  1.0
  P  P3886  1  0.88971517  0.76712191  0.28152926  1.0
  P  P3887  1  0.88971517  0.89212191  0.28152926  1.0
  P  P3888  1  0.01504674  0.07962191  0.24228026  1.0
  P  P3889  1  0.01504674  0.20462191  0.24228026  1.0
  P  P3890  1  0.01504674  0.32962191  0.24228026  1.0
  P  P3891  1  0.01504674  0.45462191  0.24228026  1.0
  P  P3892  1  0.01504674  0.57962191  0.24228026  1.0
  P  P3893  1  0.01504674  0.70462191  0.24228026  1.0
  P  P3894  1  0.01504674  0.82962191  0.24228026  1.0
  P  P3895  1  0.01504674  0.95462191  0.24228026  1.0
  P  P3896  1  0.12615785  0.07962191  0.24228026  1.0
  P  P3897  1  0.12615785  0.20462191  0.24228026  1.0
  P  P3898  1  0.12615785  0.32962191  0.24228026  1.0
  P  P3899  1  0.12615785  0.45462191  0.24228026  1.0
  P  P3900  1  0.12615785  0.57962191  0.24228026  1.0
  P  P3901  1  0.12615785  0.70462191  0.24228026  1.0
  P  P3902  1  0.12615785  0.82962191  0.24228026  1.0
  P  P3903  1  0.12615785  0.95462191  0.24228026  1.0
  P  P3904  1  0.23726896  0.07962191  0.24228026  1.0
  P  P3905  1  0.23726896  0.20462191  0.24228026  1.0
  P  P3906  1  0.23726896  0.32962191  0.24228026  1.0
  P  P3907  1  0.23726896  0.45462191  0.24228026  1.0
  P  P3908  1  0.23726896  0.57962191  0.24228026  1.0
  P  P3909  1  0.23726896  0.70462191  0.24228026  1.0
  P  P3910  1  0.23726896  0.82962191  0.24228026  1.0
  P  P3911  1  0.23726896  0.95462191  0.24228026  1.0
  P  P3912  1  0.34838007  0.07962191  0.24228026  1.0
  P  P3913  1  0.34838007  0.20462191  0.24228026  1.0
  P  P3914  1  0.34838007  0.32962191  0.24228026  1.0
  P  P3915  1  0.34838007  0.45462191  0.24228026  1.0
  P  P3916  1  0.34838007  0.57962191  0.24228026  1.0
  P  P3917  1  0.34838007  0.70462191  0.24228026  1.0
  P  P3918  1  0.34838007  0.82962191  0.24228026  1.0
  P  P3919  1  0.34838007  0.95462191  0.24228026  1.0
  P  P3920  1  0.45949118  0.07962191  0.24228026  1.0
  P  P3921  1  0.45949118  0.20462191  0.24228026  1.0
  P  P3922  1  0.45949118  0.32962191  0.24228026  1.0
  P  P3923  1  0.45949118  0.45462191  0.24228026  1.0
  P  P3924  1  0.45949118  0.57962191  0.24228026  1.0
  P  P3925  1  0.45949118  0.70462191  0.24228026  1.0
  P  P3926  1  0.45949118  0.82962191  0.24228026  1.0
  P  P3927  1  0.45949118  0.95462191  0.24228026  1.0
  P  P3928  1  0.57060229  0.07962191  0.24228026  1.0
  P  P3929  1  0.57060229  0.20462191  0.24228026  1.0
  P  P3930  1  0.57060229  0.32962191  0.24228026  1.0
  P  P3931  1  0.57060229  0.45462191  0.24228026  1.0
  P  P3932  1  0.57060229  0.57962191  0.24228026  1.0
  P  P3933  1  0.57060229  0.70462191  0.24228026  1.0
  P  P3934  1  0.57060229  0.82962191  0.24228026  1.0
  P  P3935  1  0.57060229  0.95462191  0.24228026  1.0
  P  P3936  1  0.68171340  0.07962191  0.24228026  1.0
  P  P3937  1  0.68171340  0.20462191  0.24228026  1.0
  P  P3938  1  0.68171340  0.32962191  0.24228026  1.0
  P  P3939  1  0.68171340  0.45462191  0.24228026  1.0
  P  P3940  1  0.68171340  0.57962191  0.24228026  1.0
  P  P3941  1  0.68171340  0.70462191  0.24228026  1.0
  P  P3942  1  0.68171340  0.82962191  0.24228026  1.0
  P  P3943  1  0.68171340  0.95462191  0.24228026  1.0
  P  P3944  1  0.79282451  0.07962191  0.24228026  1.0
  P  P3945  1  0.79282451  0.20462191  0.24228026  1.0
  P  P3946  1  0.79282451  0.32962191  0.24228026  1.0
  P  P3947  1  0.79282451  0.45462191  0.24228026  1.0
  P  P3948  1  0.79282451  0.57962191  0.24228026  1.0
  P  P3949  1  0.79282451  0.70462191  0.24228026  1.0
  P  P3950  1  0.79282451  0.82962191  0.24228026  1.0
  P  P3951  1  0.79282451  0.95462191  0.24228026  1.0
  P  P3952  1  0.90393562  0.07962191  0.24228026  1.0
  P  P3953  1  0.90393562  0.20462191  0.24228026  1.0
  P  P3954  1  0.90393562  0.32962191  0.24228026  1.0
  P  P3955  1  0.90393562  0.45462191  0.24228026  1.0
  P  P3956  1  0.90393562  0.57962191  0.24228026  1.0
  P  P3957  1  0.90393562  0.70462191  0.24228026  1.0
  P  P3958  1  0.90393562  0.82962191  0.24228026  1.0
  P  P3959  1  0.90393562  0.95462191  0.24228026  1.0
  P  P3960  1  0.06795679  0.07962191  0.33751835  1.0
  P  P3961  1  0.06795679  0.20462191  0.33751835  1.0
  P  P3962  1  0.06795679  0.32962191  0.33751835  1.0
  P  P3963  1  0.06795679  0.45462191  0.33751835  1.0
  P  P3964  1  0.06795679  0.57962191  0.33751835  1.0
  P  P3965  1  0.06795679  0.70462191  0.33751835  1.0
  P  P3966  1  0.06795679  0.82962191  0.33751835  1.0
  P  P3967  1  0.06795679  0.95462191  0.33751835  1.0
  P  P3968  1  0.17906790  0.07962191  0.33751835  1.0
  P  P3969  1  0.17906790  0.20462191  0.33751835  1.0
  P  P3970  1  0.17906790  0.32962191  0.33751835  1.0
  P  P3971  1  0.17906790  0.45462191  0.33751835  1.0
  P  P3972  1  0.17906790  0.57962191  0.33751835  1.0
  P  P3973  1  0.17906790  0.70462191  0.33751835  1.0
  P  P3974  1  0.17906790  0.82962191  0.33751835  1.0
  P  P3975  1  0.17906790  0.95462191  0.33751835  1.0
  P  P3976  1  0.29017901  0.07962191  0.33751835  1.0
  P  P3977  1  0.29017901  0.20462191  0.33751835  1.0
  P  P3978  1  0.29017901  0.32962191  0.33751835  1.0
  P  P3979  1  0.29017901  0.45462191  0.33751835  1.0
  P  P3980  1  0.29017901  0.57962191  0.33751835  1.0
  P  P3981  1  0.29017901  0.70462191  0.33751835  1.0
  P  P3982  1  0.29017901  0.82962191  0.33751835  1.0
  P  P3983  1  0.29017901  0.95462191  0.33751835  1.0
  P  P3984  1  0.40129012  0.07962191  0.33751835  1.0
  P  P3985  1  0.40129012  0.20462191  0.33751835  1.0
  P  P3986  1  0.40129012  0.32962191  0.33751835  1.0
  P  P3987  1  0.40129012  0.45462191  0.33751835  1.0
  P  P3988  1  0.40129012  0.57962191  0.33751835  1.0
  P  P3989  1  0.40129012  0.70462191  0.33751835  1.0
  P  P3990  1  0.40129012  0.82962191  0.33751835  1.0
  P  P3991  1  0.40129012  0.95462191  0.33751835  1.0
  P  P3992  1  0.51240123  0.07962191  0.33751835  1.0
  P  P3993  1  0.51240123  0.20462191  0.33751835  1.0
  P  P3994  1  0.51240123  0.32962191  0.33751835  1.0
  P  P3995  1  0.51240123  0.45462191  0.33751835  1.0
  P  P3996  1  0.51240123  0.57962191  0.33751835  1.0
  P  P3997  1  0.51240123  0.70462191  0.33751835  1.0
  P  P3998  1  0.51240123  0.82962191  0.33751835  1.0
  P  P3999  1  0.51240123  0.95462191  0.33751835  1.0
  P  P4000  1  0.62351234  0.07962191  0.33751835  1.0
  P  P4001  1  0.62351234  0.20462191  0.33751835  1.0
  P  P4002  1  0.62351234  0.32962191  0.33751835  1.0
  P  P4003  1  0.62351234  0.45462191  0.33751835  1.0
  P  P4004  1  0.62351234  0.57962191  0.33751835  1.0
  P  P4005  1  0.62351234  0.70462191  0.33751835  1.0
  P  P4006  1  0.62351234  0.82962191  0.33751835  1.0
  P  P4007  1  0.62351234  0.95462191  0.33751835  1.0
  P  P4008  1  0.73462345  0.07962191  0.33751835  1.0
  P  P4009  1  0.73462345  0.20462191  0.33751835  1.0
  P  P4010  1  0.73462345  0.32962191  0.33751835  1.0
  P  P4011  1  0.73462345  0.45462191  0.33751835  1.0
  P  P4012  1  0.73462345  0.57962191  0.33751835  1.0
  P  P4013  1  0.73462345  0.70462191  0.33751835  1.0
  P  P4014  1  0.73462345  0.82962191  0.33751835  1.0
  P  P4015  1  0.73462345  0.95462191  0.33751835  1.0
  P  P4016  1  0.84573457  0.07962191  0.33751835  1.0
  P  P4017  1  0.84573457  0.20462191  0.33751835  1.0
  P  P4018  1  0.84573457  0.32962191  0.33751835  1.0
  P  P4019  1  0.84573457  0.45462191  0.33751835  1.0
  P  P4020  1  0.84573457  0.57962191  0.33751835  1.0
  P  P4021  1  0.84573457  0.70462191  0.33751835  1.0
  P  P4022  1  0.84573457  0.82962191  0.33751835  1.0
  P  P4023  1  0.84573457  0.95462191  0.33751835  1.0
  P  P4024  1  0.95684568  0.07962191  0.33751835  1.0
  P  P4025  1  0.95684568  0.20462191  0.33751835  1.0
  P  P4026  1  0.95684568  0.32962191  0.33751835  1.0
  P  P4027  1  0.95684568  0.45462191  0.33751835  1.0
  P  P4028  1  0.95684568  0.57962191  0.33751835  1.0
  P  P4029  1  0.95684568  0.70462191  0.33751835  1.0
  P  P4030  1  0.95684568  0.82962191  0.33751835  1.0
  P  P4031  1  0.95684568  0.95462191  0.33751835  1.0
  P  P4032  1  0.04150176  0.07962191  0.28989931  1.0
  P  P4033  1  0.04150176  0.20462191  0.28989931  1.0
  P  P4034  1  0.04150176  0.32962191  0.28989931  1.0
  P  P4035  1  0.04150176  0.45462191  0.28989931  1.0
  P  P4036  1  0.04150176  0.57962191  0.28989931  1.0
  P  P4037  1  0.04150176  0.70462191  0.28989931  1.0
  P  P4038  1  0.04150176  0.82962191  0.28989931  1.0
  P  P4039  1  0.04150176  0.95462191  0.28989931  1.0
  P  P4040  1  0.15261287  0.07962191  0.28989931  1.0
  P  P4041  1  0.15261287  0.20462191  0.28989931  1.0
  P  P4042  1  0.15261287  0.32962191  0.28989931  1.0
  P  P4043  1  0.15261287  0.45462191  0.28989931  1.0
  P  P4044  1  0.15261287  0.57962191  0.28989931  1.0
  P  P4045  1  0.15261287  0.70462191  0.28989931  1.0
  P  P4046  1  0.15261287  0.82962191  0.28989931  1.0
  P  P4047  1  0.15261287  0.95462191  0.28989931  1.0
  P  P4048  1  0.26372398  0.07962191  0.28989931  1.0
  P  P4049  1  0.26372398  0.20462191  0.28989931  1.0
  P  P4050  1  0.26372398  0.32962191  0.28989931  1.0
  P  P4051  1  0.26372398  0.45462191  0.28989931  1.0
  P  P4052  1  0.26372398  0.57962191  0.28989931  1.0
  P  P4053  1  0.26372398  0.70462191  0.28989931  1.0
  P  P4054  1  0.26372398  0.82962191  0.28989931  1.0
  P  P4055  1  0.26372398  0.95462191  0.28989931  1.0
  P  P4056  1  0.37483510  0.07962191  0.28989931  1.0
  P  P4057  1  0.37483510  0.20462191  0.28989931  1.0
  P  P4058  1  0.37483510  0.32962191  0.28989931  1.0
  P  P4059  1  0.37483510  0.45462191  0.28989931  1.0
  P  P4060  1  0.37483510  0.57962191  0.28989931  1.0
  P  P4061  1  0.37483510  0.70462191  0.28989931  1.0
  P  P4062  1  0.37483510  0.82962191  0.28989931  1.0
  P  P4063  1  0.37483510  0.95462191  0.28989931  1.0
  P  P4064  1  0.48594621  0.07962191  0.28989931  1.0
  P  P4065  1  0.48594621  0.20462191  0.28989931  1.0
  P  P4066  1  0.48594621  0.32962191  0.28989931  1.0
  P  P4067  1  0.48594621  0.45462191  0.28989931  1.0
  P  P4068  1  0.48594621  0.57962191  0.28989931  1.0
  P  P4069  1  0.48594621  0.70462191  0.28989931  1.0
  P  P4070  1  0.48594621  0.82962191  0.28989931  1.0
  P  P4071  1  0.48594621  0.95462191  0.28989931  1.0
  P  P4072  1  0.59705732  0.07962191  0.28989931  1.0
  P  P4073  1  0.59705732  0.20462191  0.28989931  1.0
  P  P4074  1  0.59705732  0.32962191  0.28989931  1.0
  P  P4075  1  0.59705732  0.45462191  0.28989931  1.0
  P  P4076  1  0.59705732  0.57962191  0.28989931  1.0
  P  P4077  1  0.59705732  0.70462191  0.28989931  1.0
  P  P4078  1  0.59705732  0.82962191  0.28989931  1.0
  P  P4079  1  0.59705732  0.95462191  0.28989931  1.0
  P  P4080  1  0.70816843  0.07962191  0.28989931  1.0
  P  P4081  1  0.70816843  0.20462191  0.28989931  1.0
  P  P4082  1  0.70816843  0.32962191  0.28989931  1.0
  P  P4083  1  0.70816843  0.45462191  0.28989931  1.0
  P  P4084  1  0.70816843  0.57962191  0.28989931  1.0
  P  P4085  1  0.70816843  0.70462191  0.28989931  1.0
  P  P4086  1  0.70816843  0.82962191  0.28989931  1.0
  P  P4087  1  0.70816843  0.95462191  0.28989931  1.0
  P  P4088  1  0.81927954  0.07962191  0.28989931  1.0
  P  P4089  1  0.81927954  0.20462191  0.28989931  1.0
  P  P4090  1  0.81927954  0.32962191  0.28989931  1.0
  P  P4091  1  0.81927954  0.45462191  0.28989931  1.0
  P  P4092  1  0.81927954  0.57962191  0.28989931  1.0
  P  P4093  1  0.81927954  0.70462191  0.28989931  1.0
  P  P4094  1  0.81927954  0.82962191  0.28989931  1.0
  P  P4095  1  0.81927954  0.95462191  0.28989931  1.0
  P  P4096  1  0.93039065  0.07962191  0.28989931  1.0
  P  P4097  1  0.93039065  0.20462191  0.28989931  1.0
  P  P4098  1  0.93039065  0.32962191  0.28989931  1.0
  P  P4099  1  0.93039065  0.45462191  0.28989931  1.0
  P  P4100  1  0.93039065  0.57962191  0.28989931  1.0
  P  P4101  1  0.93039065  0.70462191  0.28989931  1.0
  P  P4102  1  0.93039065  0.82962191  0.28989931  1.0
  P  P4103  1  0.93039065  0.95462191  0.28989931  1.0
  P  P4104  1  0.04315432  0.04537809  0.25771974  1.0
  P  P4105  1  0.04315432  0.17037809  0.25771974  1.0
  P  P4106  1  0.04315432  0.29537809  0.25771974  1.0
  P  P4107  1  0.04315432  0.42037809  0.25771974  1.0
  P  P4108  1  0.04315432  0.54537809  0.25771974  1.0
  P  P4109  1  0.04315432  0.67037809  0.25771974  1.0
  P  P4110  1  0.04315432  0.79537809  0.25771974  1.0
  P  P4111  1  0.04315432  0.92037809  0.25771974  1.0
  P  P4112  1  0.15426543  0.04537809  0.25771974  1.0
  P  P4113  1  0.15426543  0.17037809  0.25771974  1.0
  P  P4114  1  0.15426543  0.29537809  0.25771974  1.0
  P  P4115  1  0.15426543  0.42037809  0.25771974  1.0
  P  P4116  1  0.15426543  0.54537809  0.25771974  1.0
  P  P4117  1  0.15426543  0.67037809  0.25771974  1.0
  P  P4118  1  0.15426543  0.79537809  0.25771974  1.0
  P  P4119  1  0.15426543  0.92037809  0.25771974  1.0
  P  P4120  1  0.26537655  0.04537809  0.25771974  1.0
  P  P4121  1  0.26537655  0.17037809  0.25771974  1.0
  P  P4122  1  0.26537655  0.29537809  0.25771974  1.0
  P  P4123  1  0.26537655  0.42037809  0.25771974  1.0
  P  P4124  1  0.26537655  0.54537809  0.25771974  1.0
  P  P4125  1  0.26537655  0.67037809  0.25771974  1.0
  P  P4126  1  0.26537655  0.79537809  0.25771974  1.0
  P  P4127  1  0.26537655  0.92037809  0.25771974  1.0
  P  P4128  1  0.37648766  0.04537809  0.25771974  1.0
  P  P4129  1  0.37648766  0.17037809  0.25771974  1.0
  P  P4130  1  0.37648766  0.29537809  0.25771974  1.0
  P  P4131  1  0.37648766  0.42037809  0.25771974  1.0
  P  P4132  1  0.37648766  0.54537809  0.25771974  1.0
  P  P4133  1  0.37648766  0.67037809  0.25771974  1.0
  P  P4134  1  0.37648766  0.79537809  0.25771974  1.0
  P  P4135  1  0.37648766  0.92037809  0.25771974  1.0
  P  P4136  1  0.48759877  0.04537809  0.25771974  1.0
  P  P4137  1  0.48759877  0.17037809  0.25771974  1.0
  P  P4138  1  0.48759877  0.29537809  0.25771974  1.0
  P  P4139  1  0.48759877  0.42037809  0.25771974  1.0
  P  P4140  1  0.48759877  0.54537809  0.25771974  1.0
  P  P4141  1  0.48759877  0.67037809  0.25771974  1.0
  P  P4142  1  0.48759877  0.79537809  0.25771974  1.0
  P  P4143  1  0.48759877  0.92037809  0.25771974  1.0
  P  P4144  1  0.59870988  0.04537809  0.25771974  1.0
  P  P4145  1  0.59870988  0.17037809  0.25771974  1.0
  P  P4146  1  0.59870988  0.29537809  0.25771974  1.0
  P  P4147  1  0.59870988  0.42037809  0.25771974  1.0
  P  P4148  1  0.59870988  0.54537809  0.25771974  1.0
  P  P4149  1  0.59870988  0.67037809  0.25771974  1.0
  P  P4150  1  0.59870988  0.79537809  0.25771974  1.0
  P  P4151  1  0.59870988  0.92037809  0.25771974  1.0
  P  P4152  1  0.70982099  0.04537809  0.25771974  1.0
  P  P4153  1  0.70982099  0.17037809  0.25771974  1.0
  P  P4154  1  0.70982099  0.29537809  0.25771974  1.0
  P  P4155  1  0.70982099  0.42037809  0.25771974  1.0
  P  P4156  1  0.70982099  0.54537809  0.25771974  1.0
  P  P4157  1  0.70982099  0.67037809  0.25771974  1.0
  P  P4158  1  0.70982099  0.79537809  0.25771974  1.0
  P  P4159  1  0.70982099  0.92037809  0.25771974  1.0
  P  P4160  1  0.82093210  0.04537809  0.25771974  1.0
  P  P4161  1  0.82093210  0.17037809  0.25771974  1.0
  P  P4162  1  0.82093210  0.29537809  0.25771974  1.0
  P  P4163  1  0.82093210  0.42037809  0.25771974  1.0
  P  P4164  1  0.82093210  0.54537809  0.25771974  1.0
  P  P4165  1  0.82093210  0.67037809  0.25771974  1.0
  P  P4166  1  0.82093210  0.79537809  0.25771974  1.0
  P  P4167  1  0.82093210  0.92037809  0.25771974  1.0
  P  P4168  1  0.93204321  0.04537809  0.25771974  1.0
  P  P4169  1  0.93204321  0.17037809  0.25771974  1.0
  P  P4170  1  0.93204321  0.29537809  0.25771974  1.0
  P  P4171  1  0.93204321  0.42037809  0.25771974  1.0
  P  P4172  1  0.93204321  0.54537809  0.25771974  1.0
  P  P4173  1  0.93204321  0.67037809  0.25771974  1.0
  P  P4174  1  0.93204321  0.79537809  0.25771974  1.0
  P  P4175  1  0.93204321  0.92037809  0.25771974  1.0
  P  P4176  1  0.09606438  0.04537809  0.35295784  1.0
  P  P4177  1  0.09606438  0.17037809  0.35295784  1.0
  P  P4178  1  0.09606438  0.29537809  0.35295784  1.0
  P  P4179  1  0.09606438  0.42037809  0.35295784  1.0
  P  P4180  1  0.09606438  0.54537809  0.35295784  1.0
  P  P4181  1  0.09606438  0.67037809  0.35295784  1.0
  P  P4182  1  0.09606438  0.79537809  0.35295784  1.0
  P  P4183  1  0.09606438  0.92037809  0.35295784  1.0
  P  P4184  1  0.20717549  0.04537809  0.35295784  1.0
  P  P4185  1  0.20717549  0.17037809  0.35295784  1.0
  P  P4186  1  0.20717549  0.29537809  0.35295784  1.0
  P  P4187  1  0.20717549  0.42037809  0.35295784  1.0
  P  P4188  1  0.20717549  0.54537809  0.35295784  1.0
  P  P4189  1  0.20717549  0.67037809  0.35295784  1.0
  P  P4190  1  0.20717549  0.79537809  0.35295784  1.0
  P  P4191  1  0.20717549  0.92037809  0.35295784  1.0
  P  P4192  1  0.31828660  0.04537809  0.35295784  1.0
  P  P4193  1  0.31828660  0.17037809  0.35295784  1.0
  P  P4194  1  0.31828660  0.29537809  0.35295784  1.0
  P  P4195  1  0.31828660  0.42037809  0.35295784  1.0
  P  P4196  1  0.31828660  0.54537809  0.35295784  1.0
  P  P4197  1  0.31828660  0.67037809  0.35295784  1.0
  P  P4198  1  0.31828660  0.79537809  0.35295784  1.0
  P  P4199  1  0.31828660  0.92037809  0.35295784  1.0
  P  P4200  1  0.42939771  0.04537809  0.35295784  1.0
  P  P4201  1  0.42939771  0.17037809  0.35295784  1.0
  P  P4202  1  0.42939771  0.29537809  0.35295784  1.0
  P  P4203  1  0.42939771  0.42037809  0.35295784  1.0
  P  P4204  1  0.42939771  0.54537809  0.35295784  1.0
  P  P4205  1  0.42939771  0.67037809  0.35295784  1.0
  P  P4206  1  0.42939771  0.79537809  0.35295784  1.0
  P  P4207  1  0.42939771  0.92037809  0.35295784  1.0
  P  P4208  1  0.54050882  0.04537809  0.35295784  1.0
  P  P4209  1  0.54050882  0.17037809  0.35295784  1.0
  P  P4210  1  0.54050882  0.29537809  0.35295784  1.0
  P  P4211  1  0.54050882  0.42037809  0.35295784  1.0
  P  P4212  1  0.54050882  0.54537809  0.35295784  1.0
  P  P4213  1  0.54050882  0.67037809  0.35295784  1.0
  P  P4214  1  0.54050882  0.79537809  0.35295784  1.0
  P  P4215  1  0.54050882  0.92037809  0.35295784  1.0
  P  P4216  1  0.65161993  0.04537809  0.35295784  1.0
  P  P4217  1  0.65161993  0.17037809  0.35295784  1.0
  P  P4218  1  0.65161993  0.29537809  0.35295784  1.0
  P  P4219  1  0.65161993  0.42037809  0.35295784  1.0
  P  P4220  1  0.65161993  0.54537809  0.35295784  1.0
  P  P4221  1  0.65161993  0.67037809  0.35295784  1.0
  P  P4222  1  0.65161993  0.79537809  0.35295784  1.0
  P  P4223  1  0.65161993  0.92037809  0.35295784  1.0
  P  P4224  1  0.76273104  0.04537809  0.35295784  1.0
  P  P4225  1  0.76273104  0.17037809  0.35295784  1.0
  P  P4226  1  0.76273104  0.29537809  0.35295784  1.0
  P  P4227  1  0.76273104  0.42037809  0.35295784  1.0
  P  P4228  1  0.76273104  0.54537809  0.35295784  1.0
  P  P4229  1  0.76273104  0.67037809  0.35295784  1.0
  P  P4230  1  0.76273104  0.79537809  0.35295784  1.0
  P  P4231  1  0.76273104  0.92037809  0.35295784  1.0
  P  P4232  1  0.87384215  0.04537809  0.35295784  1.0
  P  P4233  1  0.87384215  0.17037809  0.35295784  1.0
  P  P4234  1  0.87384215  0.29537809  0.35295784  1.0
  P  P4235  1  0.87384215  0.42037809  0.35295784  1.0
  P  P4236  1  0.87384215  0.54537809  0.35295784  1.0
  P  P4237  1  0.87384215  0.67037809  0.35295784  1.0
  P  P4238  1  0.87384215  0.79537809  0.35295784  1.0
  P  P4239  1  0.87384215  0.92037809  0.35295784  1.0
  P  P4240  1  0.98495326  0.04537809  0.35295784  1.0
  P  P4241  1  0.98495326  0.17037809  0.35295784  1.0
  P  P4242  1  0.98495326  0.29537809  0.35295784  1.0
  P  P4243  1  0.98495326  0.42037809  0.35295784  1.0
  P  P4244  1  0.98495326  0.54537809  0.35295784  1.0
  P  P4245  1  0.98495326  0.67037809  0.35295784  1.0
  P  P4246  1  0.98495326  0.79537809  0.35295784  1.0
  P  P4247  1  0.98495326  0.92037809  0.35295784  1.0
  P  P4248  1  0.06960935  0.04537809  0.30533879  1.0
  P  P4249  1  0.06960935  0.17037809  0.30533879  1.0
  P  P4250  1  0.06960935  0.29537809  0.30533879  1.0
  P  P4251  1  0.06960935  0.42037809  0.30533879  1.0
  P  P4252  1  0.06960935  0.54537809  0.30533879  1.0
  P  P4253  1  0.06960935  0.67037809  0.30533879  1.0
  P  P4254  1  0.06960935  0.79537809  0.30533879  1.0
  P  P4255  1  0.06960935  0.92037809  0.30533879  1.0
  P  P4256  1  0.18072046  0.04537809  0.30533879  1.0
  P  P4257  1  0.18072046  0.17037809  0.30533879  1.0
  P  P4258  1  0.18072046  0.29537809  0.30533879  1.0
  P  P4259  1  0.18072046  0.42037809  0.30533879  1.0
  P  P4260  1  0.18072046  0.54537809  0.30533879  1.0
  P  P4261  1  0.18072046  0.67037809  0.30533879  1.0
  P  P4262  1  0.18072046  0.79537809  0.30533879  1.0
  P  P4263  1  0.18072046  0.92037809  0.30533879  1.0
  P  P4264  1  0.29183157  0.04537809  0.30533879  1.0
  P  P4265  1  0.29183157  0.17037809  0.30533879  1.0
  P  P4266  1  0.29183157  0.29537809  0.30533879  1.0
  P  P4267  1  0.29183157  0.42037809  0.30533879  1.0
  P  P4268  1  0.29183157  0.54537809  0.30533879  1.0
  P  P4269  1  0.29183157  0.67037809  0.30533879  1.0
  P  P4270  1  0.29183157  0.79537809  0.30533879  1.0
  P  P4271  1  0.29183157  0.92037809  0.30533879  1.0
  P  P4272  1  0.40294268  0.04537809  0.30533879  1.0
  P  P4273  1  0.40294268  0.17037809  0.30533879  1.0
  P  P4274  1  0.40294268  0.29537809  0.30533879  1.0
  P  P4275  1  0.40294268  0.42037809  0.30533879  1.0
  P  P4276  1  0.40294268  0.54537809  0.30533879  1.0
  P  P4277  1  0.40294268  0.67037809  0.30533879  1.0
  P  P4278  1  0.40294268  0.79537809  0.30533879  1.0
  P  P4279  1  0.40294268  0.92037809  0.30533879  1.0
  P  P4280  1  0.51405379  0.04537809  0.30533879  1.0
  P  P4281  1  0.51405379  0.17037809  0.30533879  1.0
  P  P4282  1  0.51405379  0.29537809  0.30533879  1.0
  P  P4283  1  0.51405379  0.42037809  0.30533879  1.0
  P  P4284  1  0.51405379  0.54537809  0.30533879  1.0
  P  P4285  1  0.51405379  0.67037809  0.30533879  1.0
  P  P4286  1  0.51405379  0.79537809  0.30533879  1.0
  P  P4287  1  0.51405379  0.92037809  0.30533879  1.0
  P  P4288  1  0.62516490  0.04537809  0.30533879  1.0
  P  P4289  1  0.62516490  0.17037809  0.30533879  1.0
  P  P4290  1  0.62516490  0.29537809  0.30533879  1.0
  P  P4291  1  0.62516490  0.42037809  0.30533879  1.0
  P  P4292  1  0.62516490  0.54537809  0.30533879  1.0
  P  P4293  1  0.62516490  0.67037809  0.30533879  1.0
  P  P4294  1  0.62516490  0.79537809  0.30533879  1.0
  P  P4295  1  0.62516490  0.92037809  0.30533879  1.0
  P  P4296  1  0.73627602  0.04537809  0.30533879  1.0
  P  P4297  1  0.73627602  0.17037809  0.30533879  1.0
  P  P4298  1  0.73627602  0.29537809  0.30533879  1.0
  P  P4299  1  0.73627602  0.42037809  0.30533879  1.0
  P  P4300  1  0.73627602  0.54537809  0.30533879  1.0
  P  P4301  1  0.73627602  0.67037809  0.30533879  1.0
  P  P4302  1  0.73627602  0.79537809  0.30533879  1.0
  P  P4303  1  0.73627602  0.92037809  0.30533879  1.0
  P  P4304  1  0.84738713  0.04537809  0.30533879  1.0
  P  P4305  1  0.84738713  0.17037809  0.30533879  1.0
  P  P4306  1  0.84738713  0.29537809  0.30533879  1.0
  P  P4307  1  0.84738713  0.42037809  0.30533879  1.0
  P  P4308  1  0.84738713  0.54537809  0.30533879  1.0
  P  P4309  1  0.84738713  0.67037809  0.30533879  1.0
  P  P4310  1  0.84738713  0.79537809  0.30533879  1.0
  P  P4311  1  0.84738713  0.92037809  0.30533879  1.0
  P  P4312  1  0.95849824  0.04537809  0.30533879  1.0
  P  P4313  1  0.95849824  0.17037809  0.30533879  1.0
  P  P4314  1  0.95849824  0.29537809  0.30533879  1.0
  P  P4315  1  0.95849824  0.42037809  0.30533879  1.0
  P  P4316  1  0.95849824  0.54537809  0.30533879  1.0
  P  P4317  1  0.95849824  0.67037809  0.30533879  1.0
  P  P4318  1  0.95849824  0.79537809  0.30533879  1.0
  P  P4319  1  0.95849824  0.92037809  0.30533879  1.0
  P  P4320  1  0.04589629  0.12004423  0.25617739  1.0
  P  P4321  1  0.04589629  0.24504423  0.25617739  1.0
  P  P4322  1  0.04589629  0.37004423  0.25617739  1.0
  P  P4323  1  0.04589629  0.49504423  0.25617739  1.0
  P  P4324  1  0.04589629  0.62004423  0.25617739  1.0
  P  P4325  1  0.04589629  0.74504423  0.25617739  1.0
  P  P4326  1  0.04589629  0.87004423  0.25617739  1.0
  P  P4327  1  0.04589629  0.99504423  0.25617739  1.0
  P  P4328  1  0.15700740  0.12004423  0.25617739  1.0
  P  P4329  1  0.15700740  0.24504423  0.25617739  1.0
  P  P4330  1  0.15700740  0.37004423  0.25617739  1.0
  P  P4331  1  0.15700740  0.49504423  0.25617739  1.0
  P  P4332  1  0.15700740  0.62004423  0.25617739  1.0
  P  P4333  1  0.15700740  0.74504423  0.25617739  1.0
  P  P4334  1  0.15700740  0.87004423  0.25617739  1.0
  P  P4335  1  0.15700740  0.99504423  0.25617739  1.0
  P  P4336  1  0.26811851  0.12004423  0.25617739  1.0
  P  P4337  1  0.26811851  0.24504423  0.25617739  1.0
  P  P4338  1  0.26811851  0.37004423  0.25617739  1.0
  P  P4339  1  0.26811851  0.49504423  0.25617739  1.0
  P  P4340  1  0.26811851  0.62004423  0.25617739  1.0
  P  P4341  1  0.26811851  0.74504423  0.25617739  1.0
  P  P4342  1  0.26811851  0.87004423  0.25617739  1.0
  P  P4343  1  0.26811851  0.99504423  0.25617739  1.0
  P  P4344  1  0.37922962  0.12004423  0.25617739  1.0
  P  P4345  1  0.37922962  0.24504423  0.25617739  1.0
  P  P4346  1  0.37922962  0.37004423  0.25617739  1.0
  P  P4347  1  0.37922962  0.49504423  0.25617739  1.0
  P  P4348  1  0.37922962  0.62004423  0.25617739  1.0
  P  P4349  1  0.37922962  0.74504423  0.25617739  1.0
  P  P4350  1  0.37922962  0.87004423  0.25617739  1.0
  P  P4351  1  0.37922962  0.99504423  0.25617739  1.0
  P  P4352  1  0.49034073  0.12004423  0.25617739  1.0
  P  P4353  1  0.49034073  0.24504423  0.25617739  1.0
  P  P4354  1  0.49034073  0.37004423  0.25617739  1.0
  P  P4355  1  0.49034073  0.49504423  0.25617739  1.0
  P  P4356  1  0.49034073  0.62004423  0.25617739  1.0
  P  P4357  1  0.49034073  0.74504423  0.25617739  1.0
  P  P4358  1  0.49034073  0.87004423  0.25617739  1.0
  P  P4359  1  0.49034073  0.99504423  0.25617739  1.0
  P  P4360  1  0.60145184  0.12004423  0.25617739  1.0
  P  P4361  1  0.60145184  0.24504423  0.25617739  1.0
  P  P4362  1  0.60145184  0.37004423  0.25617739  1.0
  P  P4363  1  0.60145184  0.49504423  0.25617739  1.0
  P  P4364  1  0.60145184  0.62004423  0.25617739  1.0
  P  P4365  1  0.60145184  0.74504423  0.25617739  1.0
  P  P4366  1  0.60145184  0.87004423  0.25617739  1.0
  P  P4367  1  0.60145184  0.99504423  0.25617739  1.0
  P  P4368  1  0.71256295  0.12004423  0.25617739  1.0
  P  P4369  1  0.71256295  0.24504423  0.25617739  1.0
  P  P4370  1  0.71256295  0.37004423  0.25617739  1.0
  P  P4371  1  0.71256295  0.49504423  0.25617739  1.0
  P  P4372  1  0.71256295  0.62004423  0.25617739  1.0
  P  P4373  1  0.71256295  0.74504423  0.25617739  1.0
  P  P4374  1  0.71256295  0.87004423  0.25617739  1.0
  P  P4375  1  0.71256295  0.99504423  0.25617739  1.0
  P  P4376  1  0.82367406  0.12004423  0.25617739  1.0
  P  P4377  1  0.82367406  0.24504423  0.25617739  1.0
  P  P4378  1  0.82367406  0.37004423  0.25617739  1.0
  P  P4379  1  0.82367406  0.49504423  0.25617739  1.0
  P  P4380  1  0.82367406  0.62004423  0.25617739  1.0
  P  P4381  1  0.82367406  0.74504423  0.25617739  1.0
  P  P4382  1  0.82367406  0.87004423  0.25617739  1.0
  P  P4383  1  0.82367406  0.99504423  0.25617739  1.0
  P  P4384  1  0.93478518  0.12004423  0.25617739  1.0
  P  P4385  1  0.93478518  0.24504423  0.25617739  1.0
  P  P4386  1  0.93478518  0.37004423  0.25617739  1.0
  P  P4387  1  0.93478518  0.49504423  0.25617739  1.0
  P  P4388  1  0.93478518  0.62004423  0.25617739  1.0
  P  P4389  1  0.93478518  0.74504423  0.25617739  1.0
  P  P4390  1  0.93478518  0.87004423  0.25617739  1.0
  P  P4391  1  0.93478518  0.99504423  0.25617739  1.0
  P  P4392  1  0.09880634  0.12004423  0.35141548  1.0
  P  P4393  1  0.09880634  0.24504423  0.35141548  1.0
  P  P4394  1  0.09880634  0.37004423  0.35141548  1.0
  P  P4395  1  0.09880634  0.49504423  0.35141548  1.0
  P  P4396  1  0.09880634  0.62004423  0.35141548  1.0
  P  P4397  1  0.09880634  0.74504423  0.35141548  1.0
  P  P4398  1  0.09880634  0.87004423  0.35141548  1.0
  P  P4399  1  0.09880634  0.99504423  0.35141548  1.0
  P  P4400  1  0.20991745  0.12004423  0.35141548  1.0
  P  P4401  1  0.20991745  0.24504423  0.35141548  1.0
  P  P4402  1  0.20991745  0.37004423  0.35141548  1.0
  P  P4403  1  0.20991745  0.49504423  0.35141548  1.0
  P  P4404  1  0.20991745  0.62004423  0.35141548  1.0
  P  P4405  1  0.20991745  0.74504423  0.35141548  1.0
  P  P4406  1  0.20991745  0.87004423  0.35141548  1.0
  P  P4407  1  0.20991745  0.99504423  0.35141548  1.0
  P  P4408  1  0.32102856  0.12004423  0.35141548  1.0
  P  P4409  1  0.32102856  0.24504423  0.35141548  1.0
  P  P4410  1  0.32102856  0.37004423  0.35141548  1.0
  P  P4411  1  0.32102856  0.49504423  0.35141548  1.0
  P  P4412  1  0.32102856  0.62004423  0.35141548  1.0
  P  P4413  1  0.32102856  0.74504423  0.35141548  1.0
  P  P4414  1  0.32102856  0.87004423  0.35141548  1.0
  P  P4415  1  0.32102856  0.99504423  0.35141548  1.0
  P  P4416  1  0.43213967  0.12004423  0.35141548  1.0
  P  P4417  1  0.43213967  0.24504423  0.35141548  1.0
  P  P4418  1  0.43213967  0.37004423  0.35141548  1.0
  P  P4419  1  0.43213967  0.49504423  0.35141548  1.0
  P  P4420  1  0.43213967  0.62004423  0.35141548  1.0
  P  P4421  1  0.43213967  0.74504423  0.35141548  1.0
  P  P4422  1  0.43213967  0.87004423  0.35141548  1.0
  P  P4423  1  0.43213967  0.99504423  0.35141548  1.0
  P  P4424  1  0.54325078  0.12004423  0.35141548  1.0
  P  P4425  1  0.54325078  0.24504423  0.35141548  1.0
  P  P4426  1  0.54325078  0.37004423  0.35141548  1.0
  P  P4427  1  0.54325078  0.49504423  0.35141548  1.0
  P  P4428  1  0.54325078  0.62004423  0.35141548  1.0
  P  P4429  1  0.54325078  0.74504423  0.35141548  1.0
  P  P4430  1  0.54325078  0.87004423  0.35141548  1.0
  P  P4431  1  0.54325078  0.99504423  0.35141548  1.0
  P  P4432  1  0.65436190  0.12004423  0.35141548  1.0
  P  P4433  1  0.65436190  0.24504423  0.35141548  1.0
  P  P4434  1  0.65436190  0.37004423  0.35141548  1.0
  P  P4435  1  0.65436190  0.49504423  0.35141548  1.0
  P  P4436  1  0.65436190  0.62004423  0.35141548  1.0
  P  P4437  1  0.65436190  0.74504423  0.35141548  1.0
  P  P4438  1  0.65436190  0.87004423  0.35141548  1.0
  P  P4439  1  0.65436190  0.99504423  0.35141548  1.0
  P  P4440  1  0.76547301  0.12004423  0.35141548  1.0
  P  P4441  1  0.76547301  0.24504423  0.35141548  1.0
  P  P4442  1  0.76547301  0.37004423  0.35141548  1.0
  P  P4443  1  0.76547301  0.49504423  0.35141548  1.0
  P  P4444  1  0.76547301  0.62004423  0.35141548  1.0
  P  P4445  1  0.76547301  0.74504423  0.35141548  1.0
  P  P4446  1  0.76547301  0.87004423  0.35141548  1.0
  P  P4447  1  0.76547301  0.99504423  0.35141548  1.0
  P  P4448  1  0.87658412  0.12004423  0.35141548  1.0
  P  P4449  1  0.87658412  0.24504423  0.35141548  1.0
  P  P4450  1  0.87658412  0.37004423  0.35141548  1.0
  P  P4451  1  0.87658412  0.49504423  0.35141548  1.0
  P  P4452  1  0.87658412  0.62004423  0.35141548  1.0
  P  P4453  1  0.87658412  0.74504423  0.35141548  1.0
  P  P4454  1  0.87658412  0.87004423  0.35141548  1.0
  P  P4455  1  0.87658412  0.99504423  0.35141548  1.0
  P  P4456  1  0.98769523  0.12004423  0.35141548  1.0
  P  P4457  1  0.98769523  0.24504423  0.35141548  1.0
  P  P4458  1  0.98769523  0.37004423  0.35141548  1.0
  P  P4459  1  0.98769523  0.49504423  0.35141548  1.0
  P  P4460  1  0.98769523  0.62004423  0.35141548  1.0
  P  P4461  1  0.98769523  0.74504423  0.35141548  1.0
  P  P4462  1  0.98769523  0.87004423  0.35141548  1.0
  P  P4463  1  0.98769523  0.99504423  0.35141548  1.0
  P  P4464  1  0.07235131  0.12004423  0.30379643  1.0
  P  P4465  1  0.07235131  0.24504423  0.30379643  1.0
  P  P4466  1  0.07235131  0.37004423  0.30379643  1.0
  P  P4467  1  0.07235131  0.49504423  0.30379643  1.0
  P  P4468  1  0.07235131  0.62004423  0.30379643  1.0
  P  P4469  1  0.07235131  0.74504423  0.30379643  1.0
  P  P4470  1  0.07235131  0.87004423  0.30379643  1.0
  P  P4471  1  0.07235131  0.99504423  0.30379643  1.0
  P  P4472  1  0.18346242  0.12004423  0.30379643  1.0
  P  P4473  1  0.18346242  0.24504423  0.30379643  1.0
  P  P4474  1  0.18346242  0.37004423  0.30379643  1.0
  P  P4475  1  0.18346242  0.49504423  0.30379643  1.0
  P  P4476  1  0.18346242  0.62004423  0.30379643  1.0
  P  P4477  1  0.18346242  0.74504423  0.30379643  1.0
  P  P4478  1  0.18346242  0.87004423  0.30379643  1.0
  P  P4479  1  0.18346242  0.99504423  0.30379643  1.0
  P  P4480  1  0.29457354  0.12004423  0.30379643  1.0
  P  P4481  1  0.29457354  0.24504423  0.30379643  1.0
  P  P4482  1  0.29457354  0.37004423  0.30379643  1.0
  P  P4483  1  0.29457354  0.49504423  0.30379643  1.0
  P  P4484  1  0.29457354  0.62004423  0.30379643  1.0
  P  P4485  1  0.29457354  0.74504423  0.30379643  1.0
  P  P4486  1  0.29457354  0.87004423  0.30379643  1.0
  P  P4487  1  0.29457354  0.99504423  0.30379643  1.0
  P  P4488  1  0.40568465  0.12004423  0.30379643  1.0
  P  P4489  1  0.40568465  0.24504423  0.30379643  1.0
  P  P4490  1  0.40568465  0.37004423  0.30379643  1.0
  P  P4491  1  0.40568465  0.49504423  0.30379643  1.0
  P  P4492  1  0.40568465  0.62004423  0.30379643  1.0
  P  P4493  1  0.40568465  0.74504423  0.30379643  1.0
  P  P4494  1  0.40568465  0.87004423  0.30379643  1.0
  P  P4495  1  0.40568465  0.99504423  0.30379643  1.0
  P  P4496  1  0.51679576  0.12004423  0.30379643  1.0
  P  P4497  1  0.51679576  0.24504423  0.30379643  1.0
  P  P4498  1  0.51679576  0.37004423  0.30379643  1.0
  P  P4499  1  0.51679576  0.49504423  0.30379643  1.0
  P  P4500  1  0.51679576  0.62004423  0.30379643  1.0
  P  P4501  1  0.51679576  0.74504423  0.30379643  1.0
  P  P4502  1  0.51679576  0.87004423  0.30379643  1.0
  P  P4503  1  0.51679576  0.99504423  0.30379643  1.0
  P  P4504  1  0.62790687  0.12004423  0.30379643  1.0
  P  P4505  1  0.62790687  0.24504423  0.30379643  1.0
  P  P4506  1  0.62790687  0.37004423  0.30379643  1.0
  P  P4507  1  0.62790687  0.49504423  0.30379643  1.0
  P  P4508  1  0.62790687  0.62004423  0.30379643  1.0
  P  P4509  1  0.62790687  0.74504423  0.30379643  1.0
  P  P4510  1  0.62790687  0.87004423  0.30379643  1.0
  P  P4511  1  0.62790687  0.99504423  0.30379643  1.0
  P  P4512  1  0.73901798  0.12004423  0.30379643  1.0
  P  P4513  1  0.73901798  0.24504423  0.30379643  1.0
  P  P4514  1  0.73901798  0.37004423  0.30379643  1.0
  P  P4515  1  0.73901798  0.49504423  0.30379643  1.0
  P  P4516  1  0.73901798  0.62004423  0.30379643  1.0
  P  P4517  1  0.73901798  0.74504423  0.30379643  1.0
  P  P4518  1  0.73901798  0.87004423  0.30379643  1.0
  P  P4519  1  0.73901798  0.99504423  0.30379643  1.0
  P  P4520  1  0.85012909  0.12004423  0.30379643  1.0
  P  P4521  1  0.85012909  0.24504423  0.30379643  1.0
  P  P4522  1  0.85012909  0.37004423  0.30379643  1.0
  P  P4523  1  0.85012909  0.49504423  0.30379643  1.0
  P  P4524  1  0.85012909  0.62004423  0.30379643  1.0
  P  P4525  1  0.85012909  0.74504423  0.30379643  1.0
  P  P4526  1  0.85012909  0.87004423  0.30379643  1.0
  P  P4527  1  0.85012909  0.99504423  0.30379643  1.0
  P  P4528  1  0.96124020  0.12004423  0.30379643  1.0
  P  P4529  1  0.96124020  0.24504423  0.30379643  1.0
  P  P4530  1  0.96124020  0.37004423  0.30379643  1.0
  P  P4531  1  0.96124020  0.49504423  0.30379643  1.0
  P  P4532  1  0.96124020  0.62004423  0.30379643  1.0
  P  P4533  1  0.96124020  0.74504423  0.30379643  1.0
  P  P4534  1  0.96124020  0.87004423  0.30379643  1.0
  P  P4535  1  0.96124020  0.99504423  0.30379643  1.0
  P  P4536  1  0.01230477  0.00495577  0.24382261  1.0
  P  P4537  1  0.01230477  0.12995577  0.24382261  1.0
  P  P4538  1  0.01230477  0.25495577  0.24382261  1.0
  P  P4539  1  0.01230477  0.37995577  0.24382261  1.0
  P  P4540  1  0.01230477  0.50495577  0.24382261  1.0
  P  P4541  1  0.01230477  0.62995577  0.24382261  1.0
  P  P4542  1  0.01230477  0.75495577  0.24382261  1.0
  P  P4543  1  0.01230477  0.87995577  0.24382261  1.0
  P  P4544  1  0.12341588  0.00495577  0.24382261  1.0
  P  P4545  1  0.12341588  0.12995577  0.24382261  1.0
  P  P4546  1  0.12341588  0.25495577  0.24382261  1.0
  P  P4547  1  0.12341588  0.37995577  0.24382261  1.0
  P  P4548  1  0.12341588  0.50495577  0.24382261  1.0
  P  P4549  1  0.12341588  0.62995577  0.24382261  1.0
  P  P4550  1  0.12341588  0.75495577  0.24382261  1.0
  P  P4551  1  0.12341588  0.87995577  0.24382261  1.0
  P  P4552  1  0.23452699  0.00495577  0.24382261  1.0
  P  P4553  1  0.23452699  0.12995577  0.24382261  1.0
  P  P4554  1  0.23452699  0.25495577  0.24382261  1.0
  P  P4555  1  0.23452699  0.37995577  0.24382261  1.0
  P  P4556  1  0.23452699  0.50495577  0.24382261  1.0
  P  P4557  1  0.23452699  0.62995577  0.24382261  1.0
  P  P4558  1  0.23452699  0.75495577  0.24382261  1.0
  P  P4559  1  0.23452699  0.87995577  0.24382261  1.0
  P  P4560  1  0.34563810  0.00495577  0.24382261  1.0
  P  P4561  1  0.34563810  0.12995577  0.24382261  1.0
  P  P4562  1  0.34563810  0.25495577  0.24382261  1.0
  P  P4563  1  0.34563810  0.37995577  0.24382261  1.0
  P  P4564  1  0.34563810  0.50495577  0.24382261  1.0
  P  P4565  1  0.34563810  0.62995577  0.24382261  1.0
  P  P4566  1  0.34563810  0.75495577  0.24382261  1.0
  P  P4567  1  0.34563810  0.87995577  0.24382261  1.0
  P  P4568  1  0.45674922  0.00495577  0.24382261  1.0
  P  P4569  1  0.45674922  0.12995577  0.24382261  1.0
  P  P4570  1  0.45674922  0.25495577  0.24382261  1.0
  P  P4571  1  0.45674922  0.37995577  0.24382261  1.0
  P  P4572  1  0.45674922  0.50495577  0.24382261  1.0
  P  P4573  1  0.45674922  0.62995577  0.24382261  1.0
  P  P4574  1  0.45674922  0.75495577  0.24382261  1.0
  P  P4575  1  0.45674922  0.87995577  0.24382261  1.0
  P  P4576  1  0.56786033  0.00495577  0.24382261  1.0
  P  P4577  1  0.56786033  0.12995577  0.24382261  1.0
  P  P4578  1  0.56786033  0.25495577  0.24382261  1.0
  P  P4579  1  0.56786033  0.37995577  0.24382261  1.0
  P  P4580  1  0.56786033  0.50495577  0.24382261  1.0
  P  P4581  1  0.56786033  0.62995577  0.24382261  1.0
  P  P4582  1  0.56786033  0.75495577  0.24382261  1.0
  P  P4583  1  0.56786033  0.87995577  0.24382261  1.0
  P  P4584  1  0.67897144  0.00495577  0.24382261  1.0
  P  P4585  1  0.67897144  0.12995577  0.24382261  1.0
  P  P4586  1  0.67897144  0.25495577  0.24382261  1.0
  P  P4587  1  0.67897144  0.37995577  0.24382261  1.0
  P  P4588  1  0.67897144  0.50495577  0.24382261  1.0
  P  P4589  1  0.67897144  0.62995577  0.24382261  1.0
  P  P4590  1  0.67897144  0.75495577  0.24382261  1.0
  P  P4591  1  0.67897144  0.87995577  0.24382261  1.0
  P  P4592  1  0.79008255  0.00495577  0.24382261  1.0
  P  P4593  1  0.79008255  0.12995577  0.24382261  1.0
  P  P4594  1  0.79008255  0.25495577  0.24382261  1.0
  P  P4595  1  0.79008255  0.37995577  0.24382261  1.0
  P  P4596  1  0.79008255  0.50495577  0.24382261  1.0
  P  P4597  1  0.79008255  0.62995577  0.24382261  1.0
  P  P4598  1  0.79008255  0.75495577  0.24382261  1.0
  P  P4599  1  0.79008255  0.87995577  0.24382261  1.0
  P  P4600  1  0.90119366  0.00495577  0.24382261  1.0
  P  P4601  1  0.90119366  0.12995577  0.24382261  1.0
  P  P4602  1  0.90119366  0.25495577  0.24382261  1.0
  P  P4603  1  0.90119366  0.37995577  0.24382261  1.0
  P  P4604  1  0.90119366  0.50495577  0.24382261  1.0
  P  P4605  1  0.90119366  0.62995577  0.24382261  1.0
  P  P4606  1  0.90119366  0.75495577  0.24382261  1.0
  P  P4607  1  0.90119366  0.87995577  0.24382261  1.0
  P  P4608  1  0.06521482  0.00495577  0.33906071  1.0
  P  P4609  1  0.06521482  0.12995577  0.33906071  1.0
  P  P4610  1  0.06521482  0.25495577  0.33906071  1.0
  P  P4611  1  0.06521482  0.37995577  0.33906071  1.0
  P  P4612  1  0.06521482  0.50495577  0.33906071  1.0
  P  P4613  1  0.06521482  0.62995577  0.33906071  1.0
  P  P4614  1  0.06521482  0.75495577  0.33906071  1.0
  P  P4615  1  0.06521482  0.87995577  0.33906071  1.0
  P  P4616  1  0.17632594  0.00495577  0.33906071  1.0
  P  P4617  1  0.17632594  0.12995577  0.33906071  1.0
  P  P4618  1  0.17632594  0.25495577  0.33906071  1.0
  P  P4619  1  0.17632594  0.37995577  0.33906071  1.0
  P  P4620  1  0.17632594  0.50495577  0.33906071  1.0
  P  P4621  1  0.17632594  0.62995577  0.33906071  1.0
  P  P4622  1  0.17632594  0.75495577  0.33906071  1.0
  P  P4623  1  0.17632594  0.87995577  0.33906071  1.0
  P  P4624  1  0.28743705  0.00495577  0.33906071  1.0
  P  P4625  1  0.28743705  0.12995577  0.33906071  1.0
  P  P4626  1  0.28743705  0.25495577  0.33906071  1.0
  P  P4627  1  0.28743705  0.37995577  0.33906071  1.0
  P  P4628  1  0.28743705  0.50495577  0.33906071  1.0
  P  P4629  1  0.28743705  0.62995577  0.33906071  1.0
  P  P4630  1  0.28743705  0.75495577  0.33906071  1.0
  P  P4631  1  0.28743705  0.87995577  0.33906071  1.0
  P  P4632  1  0.39854816  0.00495577  0.33906071  1.0
  P  P4633  1  0.39854816  0.12995577  0.33906071  1.0
  P  P4634  1  0.39854816  0.25495577  0.33906071  1.0
  P  P4635  1  0.39854816  0.37995577  0.33906071  1.0
  P  P4636  1  0.39854816  0.50495577  0.33906071  1.0
  P  P4637  1  0.39854816  0.62995577  0.33906071  1.0
  P  P4638  1  0.39854816  0.75495577  0.33906071  1.0
  P  P4639  1  0.39854816  0.87995577  0.33906071  1.0
  P  P4640  1  0.50965927  0.00495577  0.33906071  1.0
  P  P4641  1  0.50965927  0.12995577  0.33906071  1.0
  P  P4642  1  0.50965927  0.25495577  0.33906071  1.0
  P  P4643  1  0.50965927  0.37995577  0.33906071  1.0
  P  P4644  1  0.50965927  0.50495577  0.33906071  1.0
  P  P4645  1  0.50965927  0.62995577  0.33906071  1.0
  P  P4646  1  0.50965927  0.75495577  0.33906071  1.0
  P  P4647  1  0.50965927  0.87995577  0.33906071  1.0
  P  P4648  1  0.62077038  0.00495577  0.33906071  1.0
  P  P4649  1  0.62077038  0.12995577  0.33906071  1.0
  P  P4650  1  0.62077038  0.25495577  0.33906071  1.0
  P  P4651  1  0.62077038  0.37995577  0.33906071  1.0
  P  P4652  1  0.62077038  0.50495577  0.33906071  1.0
  P  P4653  1  0.62077038  0.62995577  0.33906071  1.0
  P  P4654  1  0.62077038  0.75495577  0.33906071  1.0
  P  P4655  1  0.62077038  0.87995577  0.33906071  1.0
  P  P4656  1  0.73188149  0.00495577  0.33906071  1.0
  P  P4657  1  0.73188149  0.12995577  0.33906071  1.0
  P  P4658  1  0.73188149  0.25495577  0.33906071  1.0
  P  P4659  1  0.73188149  0.37995577  0.33906071  1.0
  P  P4660  1  0.73188149  0.50495577  0.33906071  1.0
  P  P4661  1  0.73188149  0.62995577  0.33906071  1.0
  P  P4662  1  0.73188149  0.75495577  0.33906071  1.0
  P  P4663  1  0.73188149  0.87995577  0.33906071  1.0
  P  P4664  1  0.84299260  0.00495577  0.33906071  1.0
  P  P4665  1  0.84299260  0.12995577  0.33906071  1.0
  P  P4666  1  0.84299260  0.25495577  0.33906071  1.0
  P  P4667  1  0.84299260  0.37995577  0.33906071  1.0
  P  P4668  1  0.84299260  0.50495577  0.33906071  1.0
  P  P4669  1  0.84299260  0.62995577  0.33906071  1.0
  P  P4670  1  0.84299260  0.75495577  0.33906071  1.0
  P  P4671  1  0.84299260  0.87995577  0.33906071  1.0
  P  P4672  1  0.95410371  0.00495577  0.33906071  1.0
  P  P4673  1  0.95410371  0.12995577  0.33906071  1.0
  P  P4674  1  0.95410371  0.25495577  0.33906071  1.0
  P  P4675  1  0.95410371  0.37995577  0.33906071  1.0
  P  P4676  1  0.95410371  0.50495577  0.33906071  1.0
  P  P4677  1  0.95410371  0.62995577  0.33906071  1.0
  P  P4678  1  0.95410371  0.75495577  0.33906071  1.0
  P  P4679  1  0.95410371  0.87995577  0.33906071  1.0
  P  P4680  1  0.03875980  0.00495577  0.29144166  1.0
  P  P4681  1  0.03875980  0.12995577  0.29144166  1.0
  P  P4682  1  0.03875980  0.25495577  0.29144166  1.0
  P  P4683  1  0.03875980  0.37995577  0.29144166  1.0
  P  P4684  1  0.03875980  0.50495577  0.29144166  1.0
  P  P4685  1  0.03875980  0.62995577  0.29144166  1.0
  P  P4686  1  0.03875980  0.75495577  0.29144166  1.0
  P  P4687  1  0.03875980  0.87995577  0.29144166  1.0
  P  P4688  1  0.14987091  0.00495577  0.29144166  1.0
  P  P4689  1  0.14987091  0.12995577  0.29144166  1.0
  P  P4690  1  0.14987091  0.25495577  0.29144166  1.0
  P  P4691  1  0.14987091  0.37995577  0.29144166  1.0
  P  P4692  1  0.14987091  0.50495577  0.29144166  1.0
  P  P4693  1  0.14987091  0.62995577  0.29144166  1.0
  P  P4694  1  0.14987091  0.75495577  0.29144166  1.0
  P  P4695  1  0.14987091  0.87995577  0.29144166  1.0
  P  P4696  1  0.26098202  0.00495577  0.29144166  1.0
  P  P4697  1  0.26098202  0.12995577  0.29144166  1.0
  P  P4698  1  0.26098202  0.25495577  0.29144166  1.0
  P  P4699  1  0.26098202  0.37995577  0.29144166  1.0
  P  P4700  1  0.26098202  0.50495577  0.29144166  1.0
  P  P4701  1  0.26098202  0.62995577  0.29144166  1.0
  P  P4702  1  0.26098202  0.75495577  0.29144166  1.0
  P  P4703  1  0.26098202  0.87995577  0.29144166  1.0
  P  P4704  1  0.37209313  0.00495577  0.29144166  1.0
  P  P4705  1  0.37209313  0.12995577  0.29144166  1.0
  P  P4706  1  0.37209313  0.25495577  0.29144166  1.0
  P  P4707  1  0.37209313  0.37995577  0.29144166  1.0
  P  P4708  1  0.37209313  0.50495577  0.29144166  1.0
  P  P4709  1  0.37209313  0.62995577  0.29144166  1.0
  P  P4710  1  0.37209313  0.75495577  0.29144166  1.0
  P  P4711  1  0.37209313  0.87995577  0.29144166  1.0
  P  P4712  1  0.48320424  0.00495577  0.29144166  1.0
  P  P4713  1  0.48320424  0.12995577  0.29144166  1.0
  P  P4714  1  0.48320424  0.25495577  0.29144166  1.0
  P  P4715  1  0.48320424  0.37995577  0.29144166  1.0
  P  P4716  1  0.48320424  0.50495577  0.29144166  1.0
  P  P4717  1  0.48320424  0.62995577  0.29144166  1.0
  P  P4718  1  0.48320424  0.75495577  0.29144166  1.0
  P  P4719  1  0.48320424  0.87995577  0.29144166  1.0
  P  P4720  1  0.59431535  0.00495577  0.29144166  1.0
  P  P4721  1  0.59431535  0.12995577  0.29144166  1.0
  P  P4722  1  0.59431535  0.25495577  0.29144166  1.0
  P  P4723  1  0.59431535  0.37995577  0.29144166  1.0
  P  P4724  1  0.59431535  0.50495577  0.29144166  1.0
  P  P4725  1  0.59431535  0.62995577  0.29144166  1.0
  P  P4726  1  0.59431535  0.75495577  0.29144166  1.0
  P  P4727  1  0.59431535  0.87995577  0.29144166  1.0
  P  P4728  1  0.70542646  0.00495577  0.29144166  1.0
  P  P4729  1  0.70542646  0.12995577  0.29144166  1.0
  P  P4730  1  0.70542646  0.25495577  0.29144166  1.0
  P  P4731  1  0.70542646  0.37995577  0.29144166  1.0
  P  P4732  1  0.70542646  0.50495577  0.29144166  1.0
  P  P4733  1  0.70542646  0.62995577  0.29144166  1.0
  P  P4734  1  0.70542646  0.75495577  0.29144166  1.0
  P  P4735  1  0.70542646  0.87995577  0.29144166  1.0
  P  P4736  1  0.81653758  0.00495577  0.29144166  1.0
  P  P4737  1  0.81653758  0.12995577  0.29144166  1.0
  P  P4738  1  0.81653758  0.25495577  0.29144166  1.0
  P  P4739  1  0.81653758  0.37995577  0.29144166  1.0
  P  P4740  1  0.81653758  0.50495577  0.29144166  1.0
  P  P4741  1  0.81653758  0.62995577  0.29144166  1.0
  P  P4742  1  0.81653758  0.75495577  0.29144166  1.0
  P  P4743  1  0.81653758  0.87995577  0.29144166  1.0
  P  P4744  1  0.92764869  0.00495577  0.29144166  1.0
  P  P4745  1  0.92764869  0.12995577  0.29144166  1.0
  P  P4746  1  0.92764869  0.25495577  0.29144166  1.0
  P  P4747  1  0.92764869  0.37995577  0.29144166  1.0
  P  P4748  1  0.92764869  0.50495577  0.29144166  1.0
  P  P4749  1  0.92764869  0.62995577  0.29144166  1.0
  P  P4750  1  0.92764869  0.75495577  0.29144166  1.0
  P  P4751  1  0.92764869  0.87995577  0.29144166  1.0
  P  P4752  1  0.08822433  0.06745577  0.23236786  1.0
  P  P4753  1  0.08822433  0.19245577  0.23236786  1.0
  P  P4754  1  0.08822433  0.31745577  0.23236786  1.0
  P  P4755  1  0.08822433  0.44245577  0.23236786  1.0
  P  P4756  1  0.08822433  0.56745577  0.23236786  1.0
  P  P4757  1  0.08822433  0.69245577  0.23236786  1.0
  P  P4758  1  0.08822433  0.81745577  0.23236786  1.0
  P  P4759  1  0.08822433  0.94245577  0.23236786  1.0
  P  P4760  1  0.19933544  0.06745577  0.23236786  1.0
  P  P4761  1  0.19933544  0.19245577  0.23236786  1.0
  P  P4762  1  0.19933544  0.31745577  0.23236786  1.0
  P  P4763  1  0.19933544  0.44245577  0.23236786  1.0
  P  P4764  1  0.19933544  0.56745577  0.23236786  1.0
  P  P4765  1  0.19933544  0.69245577  0.23236786  1.0
  P  P4766  1  0.19933544  0.81745577  0.23236786  1.0
  P  P4767  1  0.19933544  0.94245577  0.23236786  1.0
  P  P4768  1  0.31044655  0.06745577  0.23236786  1.0
  P  P4769  1  0.31044655  0.19245577  0.23236786  1.0
  P  P4770  1  0.31044655  0.31745577  0.23236786  1.0
  P  P4771  1  0.31044655  0.44245577  0.23236786  1.0
  P  P4772  1  0.31044655  0.56745577  0.23236786  1.0
  P  P4773  1  0.31044655  0.69245577  0.23236786  1.0
  P  P4774  1  0.31044655  0.81745577  0.23236786  1.0
  P  P4775  1  0.31044655  0.94245577  0.23236786  1.0
  P  P4776  1  0.42155766  0.06745577  0.23236786  1.0
  P  P4777  1  0.42155766  0.19245577  0.23236786  1.0
  P  P4778  1  0.42155766  0.31745577  0.23236786  1.0
  P  P4779  1  0.42155766  0.44245577  0.23236786  1.0
  P  P4780  1  0.42155766  0.56745577  0.23236786  1.0
  P  P4781  1  0.42155766  0.69245577  0.23236786  1.0
  P  P4782  1  0.42155766  0.81745577  0.23236786  1.0
  P  P4783  1  0.42155766  0.94245577  0.23236786  1.0
  P  P4784  1  0.53266877  0.06745577  0.23236786  1.0
  P  P4785  1  0.53266877  0.19245577  0.23236786  1.0
  P  P4786  1  0.53266877  0.31745577  0.23236786  1.0
  P  P4787  1  0.53266877  0.44245577  0.23236786  1.0
  P  P4788  1  0.53266877  0.56745577  0.23236786  1.0
  P  P4789  1  0.53266877  0.69245577  0.23236786  1.0
  P  P4790  1  0.53266877  0.81745577  0.23236786  1.0
  P  P4791  1  0.53266877  0.94245577  0.23236786  1.0
  P  P4792  1  0.64377988  0.06745577  0.23236786  1.0
  P  P4793  1  0.64377988  0.19245577  0.23236786  1.0
  P  P4794  1  0.64377988  0.31745577  0.23236786  1.0
  P  P4795  1  0.64377988  0.44245577  0.23236786  1.0
  P  P4796  1  0.64377988  0.56745577  0.23236786  1.0
  P  P4797  1  0.64377988  0.69245577  0.23236786  1.0
  P  P4798  1  0.64377988  0.81745577  0.23236786  1.0
  P  P4799  1  0.64377988  0.94245577  0.23236786  1.0
  P  P4800  1  0.75489100  0.06745577  0.23236786  1.0
  P  P4801  1  0.75489100  0.19245577  0.23236786  1.0
  P  P4802  1  0.75489100  0.31745577  0.23236786  1.0
  P  P4803  1  0.75489100  0.44245577  0.23236786  1.0
  P  P4804  1  0.75489100  0.56745577  0.23236786  1.0
  P  P4805  1  0.75489100  0.69245577  0.23236786  1.0
  P  P4806  1  0.75489100  0.81745577  0.23236786  1.0
  P  P4807  1  0.75489100  0.94245577  0.23236786  1.0
  P  P4808  1  0.86600211  0.06745577  0.23236786  1.0
  P  P4809  1  0.86600211  0.19245577  0.23236786  1.0
  P  P4810  1  0.86600211  0.31745577  0.23236786  1.0
  P  P4811  1  0.86600211  0.44245577  0.23236786  1.0
  P  P4812  1  0.86600211  0.56745577  0.23236786  1.0
  P  P4813  1  0.86600211  0.69245577  0.23236786  1.0
  P  P4814  1  0.86600211  0.81745577  0.23236786  1.0
  P  P4815  1  0.86600211  0.94245577  0.23236786  1.0
  P  P4816  1  0.97711322  0.06745577  0.23236786  1.0
  P  P4817  1  0.97711322  0.19245577  0.23236786  1.0
  P  P4818  1  0.97711322  0.31745577  0.23236786  1.0
  P  P4819  1  0.97711322  0.44245577  0.23236786  1.0
  P  P4820  1  0.97711322  0.56745577  0.23236786  1.0
  P  P4821  1  0.97711322  0.69245577  0.23236786  1.0
  P  P4822  1  0.97711322  0.81745577  0.23236786  1.0
  P  P4823  1  0.97711322  0.94245577  0.23236786  1.0
  P  P4824  1  0.03002327  0.06745577  0.32760596  1.0
  P  P4825  1  0.03002327  0.19245577  0.32760596  1.0
  P  P4826  1  0.03002327  0.31745577  0.32760596  1.0
  P  P4827  1  0.03002327  0.44245577  0.32760596  1.0
  P  P4828  1  0.03002327  0.56745577  0.32760596  1.0
  P  P4829  1  0.03002327  0.69245577  0.32760596  1.0
  P  P4830  1  0.03002327  0.81745577  0.32760596  1.0
  P  P4831  1  0.03002327  0.94245577  0.32760596  1.0
  P  P4832  1  0.14113438  0.06745577  0.32760596  1.0
  P  P4833  1  0.14113438  0.19245577  0.32760596  1.0
  P  P4834  1  0.14113438  0.31745577  0.32760596  1.0
  P  P4835  1  0.14113438  0.44245577  0.32760596  1.0
  P  P4836  1  0.14113438  0.56745577  0.32760596  1.0
  P  P4837  1  0.14113438  0.69245577  0.32760596  1.0
  P  P4838  1  0.14113438  0.81745577  0.32760596  1.0
  P  P4839  1  0.14113438  0.94245577  0.32760596  1.0
  P  P4840  1  0.25224549  0.06745577  0.32760596  1.0
  P  P4841  1  0.25224549  0.19245577  0.32760596  1.0
  P  P4842  1  0.25224549  0.31745577  0.32760596  1.0
  P  P4843  1  0.25224549  0.44245577  0.32760596  1.0
  P  P4844  1  0.25224549  0.56745577  0.32760596  1.0
  P  P4845  1  0.25224549  0.69245577  0.32760596  1.0
  P  P4846  1  0.25224549  0.81745577  0.32760596  1.0
  P  P4847  1  0.25224549  0.94245577  0.32760596  1.0
  P  P4848  1  0.36335660  0.06745577  0.32760596  1.0
  P  P4849  1  0.36335660  0.19245577  0.32760596  1.0
  P  P4850  1  0.36335660  0.31745577  0.32760596  1.0
  P  P4851  1  0.36335660  0.44245577  0.32760596  1.0
  P  P4852  1  0.36335660  0.56745577  0.32760596  1.0
  P  P4853  1  0.36335660  0.69245577  0.32760596  1.0
  P  P4854  1  0.36335660  0.81745577  0.32760596  1.0
  P  P4855  1  0.36335660  0.94245577  0.32760596  1.0
  P  P4856  1  0.47446772  0.06745577  0.32760596  1.0
  P  P4857  1  0.47446772  0.19245577  0.32760596  1.0
  P  P4858  1  0.47446772  0.31745577  0.32760596  1.0
  P  P4859  1  0.47446772  0.44245577  0.32760596  1.0
  P  P4860  1  0.47446772  0.56745577  0.32760596  1.0
  P  P4861  1  0.47446772  0.69245577  0.32760596  1.0
  P  P4862  1  0.47446772  0.81745577  0.32760596  1.0
  P  P4863  1  0.47446772  0.94245577  0.32760596  1.0
  P  P4864  1  0.58557883  0.06745577  0.32760596  1.0
  P  P4865  1  0.58557883  0.19245577  0.32760596  1.0
  P  P4866  1  0.58557883  0.31745577  0.32760596  1.0
  P  P4867  1  0.58557883  0.44245577  0.32760596  1.0
  P  P4868  1  0.58557883  0.56745577  0.32760596  1.0
  P  P4869  1  0.58557883  0.69245577  0.32760596  1.0
  P  P4870  1  0.58557883  0.81745577  0.32760596  1.0
  P  P4871  1  0.58557883  0.94245577  0.32760596  1.0
  P  P4872  1  0.69668994  0.06745577  0.32760596  1.0
  P  P4873  1  0.69668994  0.19245577  0.32760596  1.0
  P  P4874  1  0.69668994  0.31745577  0.32760596  1.0
  P  P4875  1  0.69668994  0.44245577  0.32760596  1.0
  P  P4876  1  0.69668994  0.56745577  0.32760596  1.0
  P  P4877  1  0.69668994  0.69245577  0.32760596  1.0
  P  P4878  1  0.69668994  0.81745577  0.32760596  1.0
  P  P4879  1  0.69668994  0.94245577  0.32760596  1.0
  P  P4880  1  0.80780105  0.06745577  0.32760596  1.0
  P  P4881  1  0.80780105  0.19245577  0.32760596  1.0
  P  P4882  1  0.80780105  0.31745577  0.32760596  1.0
  P  P4883  1  0.80780105  0.44245577  0.32760596  1.0
  P  P4884  1  0.80780105  0.56745577  0.32760596  1.0
  P  P4885  1  0.80780105  0.69245577  0.32760596  1.0
  P  P4886  1  0.80780105  0.81745577  0.32760596  1.0
  P  P4887  1  0.80780105  0.94245577  0.32760596  1.0
  P  P4888  1  0.91891216  0.06745577  0.32760596  1.0
  P  P4889  1  0.91891216  0.19245577  0.32760596  1.0
  P  P4890  1  0.91891216  0.31745577  0.32760596  1.0
  P  P4891  1  0.91891216  0.44245577  0.32760596  1.0
  P  P4892  1  0.91891216  0.56745577  0.32760596  1.0
  P  P4893  1  0.91891216  0.69245577  0.32760596  1.0
  P  P4894  1  0.91891216  0.81745577  0.32760596  1.0
  P  P4895  1  0.91891216  0.94245577  0.32760596  1.0
  P  P4896  1  0.00356824  0.06745577  0.27998691  1.0
  P  P4897  1  0.00356824  0.19245577  0.27998691  1.0
  P  P4898  1  0.00356824  0.31745577  0.27998691  1.0
  P  P4899  1  0.00356824  0.44245577  0.27998691  1.0
  P  P4900  1  0.00356824  0.56745577  0.27998691  1.0
  P  P4901  1  0.00356824  0.69245577  0.27998691  1.0
  P  P4902  1  0.00356824  0.81745577  0.27998691  1.0
  P  P4903  1  0.00356824  0.94245577  0.27998691  1.0
  P  P4904  1  0.11467936  0.06745577  0.27998691  1.0
  P  P4905  1  0.11467936  0.19245577  0.27998691  1.0
  P  P4906  1  0.11467936  0.31745577  0.27998691  1.0
  P  P4907  1  0.11467936  0.44245577  0.27998691  1.0
  P  P4908  1  0.11467936  0.56745577  0.27998691  1.0
  P  P4909  1  0.11467936  0.69245577  0.27998691  1.0
  P  P4910  1  0.11467936  0.81745577  0.27998691  1.0
  P  P4911  1  0.11467936  0.94245577  0.27998691  1.0
  P  P4912  1  0.22579047  0.06745577  0.27998691  1.0
  P  P4913  1  0.22579047  0.19245577  0.27998691  1.0
  P  P4914  1  0.22579047  0.31745577  0.27998691  1.0
  P  P4915  1  0.22579047  0.44245577  0.27998691  1.0
  P  P4916  1  0.22579047  0.56745577  0.27998691  1.0
  P  P4917  1  0.22579047  0.69245577  0.27998691  1.0
  P  P4918  1  0.22579047  0.81745577  0.27998691  1.0
  P  P4919  1  0.22579047  0.94245577  0.27998691  1.0
  P  P4920  1  0.33690158  0.06745577  0.27998691  1.0
  P  P4921  1  0.33690158  0.19245577  0.27998691  1.0
  P  P4922  1  0.33690158  0.31745577  0.27998691  1.0
  P  P4923  1  0.33690158  0.44245577  0.27998691  1.0
  P  P4924  1  0.33690158  0.56745577  0.27998691  1.0
  P  P4925  1  0.33690158  0.69245577  0.27998691  1.0
  P  P4926  1  0.33690158  0.81745577  0.27998691  1.0
  P  P4927  1  0.33690158  0.94245577  0.27998691  1.0
  P  P4928  1  0.44801269  0.06745577  0.27998691  1.0
  P  P4929  1  0.44801269  0.19245577  0.27998691  1.0
  P  P4930  1  0.44801269  0.31745577  0.27998691  1.0
  P  P4931  1  0.44801269  0.44245577  0.27998691  1.0
  P  P4932  1  0.44801269  0.56745577  0.27998691  1.0
  P  P4933  1  0.44801269  0.69245577  0.27998691  1.0
  P  P4934  1  0.44801269  0.81745577  0.27998691  1.0
  P  P4935  1  0.44801269  0.94245577  0.27998691  1.0
  P  P4936  1  0.55912380  0.06745577  0.27998691  1.0
  P  P4937  1  0.55912380  0.19245577  0.27998691  1.0
  P  P4938  1  0.55912380  0.31745577  0.27998691  1.0
  P  P4939  1  0.55912380  0.44245577  0.27998691  1.0
  P  P4940  1  0.55912380  0.56745577  0.27998691  1.0
  P  P4941  1  0.55912380  0.69245577  0.27998691  1.0
  P  P4942  1  0.55912380  0.81745577  0.27998691  1.0
  P  P4943  1  0.55912380  0.94245577  0.27998691  1.0
  P  P4944  1  0.67023491  0.06745577  0.27998691  1.0
  P  P4945  1  0.67023491  0.19245577  0.27998691  1.0
  P  P4946  1  0.67023491  0.31745577  0.27998691  1.0
  P  P4947  1  0.67023491  0.44245577  0.27998691  1.0
  P  P4948  1  0.67023491  0.56745577  0.27998691  1.0
  P  P4949  1  0.67023491  0.69245577  0.27998691  1.0
  P  P4950  1  0.67023491  0.81745577  0.27998691  1.0
  P  P4951  1  0.67023491  0.94245577  0.27998691  1.0
  P  P4952  1  0.78134602  0.06745577  0.27998691  1.0
  P  P4953  1  0.78134602  0.19245577  0.27998691  1.0
  P  P4954  1  0.78134602  0.31745577  0.27998691  1.0
  P  P4955  1  0.78134602  0.44245577  0.27998691  1.0
  P  P4956  1  0.78134602  0.56745577  0.27998691  1.0
  P  P4957  1  0.78134602  0.69245577  0.27998691  1.0
  P  P4958  1  0.78134602  0.81745577  0.27998691  1.0
  P  P4959  1  0.78134602  0.94245577  0.27998691  1.0
  P  P4960  1  0.89245713  0.06745577  0.27998691  1.0
  P  P4961  1  0.89245713  0.19245577  0.27998691  1.0
  P  P4962  1  0.89245713  0.31745577  0.27998691  1.0
  P  P4963  1  0.89245713  0.44245577  0.27998691  1.0
  P  P4964  1  0.89245713  0.56745577  0.27998691  1.0
  P  P4965  1  0.89245713  0.69245577  0.27998691  1.0
  P  P4966  1  0.89245713  0.81745577  0.27998691  1.0
  P  P4967  1  0.89245713  0.94245577  0.27998691  1.0
  P  P4968  1  0.08108784  0.05754423  0.26763214  1.0
  P  P4969  1  0.08108784  0.18254423  0.26763214  1.0
  P  P4970  1  0.08108784  0.30754423  0.26763214  1.0
  P  P4971  1  0.08108784  0.43254423  0.26763214  1.0
  P  P4972  1  0.08108784  0.55754423  0.26763214  1.0
  P  P4973  1  0.08108784  0.68254423  0.26763214  1.0
  P  P4974  1  0.08108784  0.80754423  0.26763214  1.0
  P  P4975  1  0.08108784  0.93254423  0.26763214  1.0
  P  P4976  1  0.19219895  0.05754423  0.26763214  1.0
  P  P4977  1  0.19219895  0.18254423  0.26763214  1.0
  P  P4978  1  0.19219895  0.30754423  0.26763214  1.0
  P  P4979  1  0.19219895  0.43254423  0.26763214  1.0
  P  P4980  1  0.19219895  0.55754423  0.26763214  1.0
  P  P4981  1  0.19219895  0.68254423  0.26763214  1.0
  P  P4982  1  0.19219895  0.80754423  0.26763214  1.0
  P  P4983  1  0.19219895  0.93254423  0.26763214  1.0
  P  P4984  1  0.30331006  0.05754423  0.26763214  1.0
  P  P4985  1  0.30331006  0.18254423  0.26763214  1.0
  P  P4986  1  0.30331006  0.30754423  0.26763214  1.0
  P  P4987  1  0.30331006  0.43254423  0.26763214  1.0
  P  P4988  1  0.30331006  0.55754423  0.26763214  1.0
  P  P4989  1  0.30331006  0.68254423  0.26763214  1.0
  P  P4990  1  0.30331006  0.80754423  0.26763214  1.0
  P  P4991  1  0.30331006  0.93254423  0.26763214  1.0
  P  P4992  1  0.41442117  0.05754423  0.26763214  1.0
  P  P4993  1  0.41442117  0.18254423  0.26763214  1.0
  P  P4994  1  0.41442117  0.30754423  0.26763214  1.0
  P  P4995  1  0.41442117  0.43254423  0.26763214  1.0
  P  P4996  1  0.41442117  0.55754423  0.26763214  1.0
  P  P4997  1  0.41442117  0.68254423  0.26763214  1.0
  P  P4998  1  0.41442117  0.80754423  0.26763214  1.0
  P  P4999  1  0.41442117  0.93254423  0.26763214  1.0
  P  P5000  1  0.52553228  0.05754423  0.26763214  1.0
  P  P5001  1  0.52553228  0.18254423  0.26763214  1.0
  P  P5002  1  0.52553228  0.30754423  0.26763214  1.0
  P  P5003  1  0.52553228  0.43254423  0.26763214  1.0
  P  P5004  1  0.52553228  0.55754423  0.26763214  1.0
  P  P5005  1  0.52553228  0.68254423  0.26763214  1.0
  P  P5006  1  0.52553228  0.80754423  0.26763214  1.0
  P  P5007  1  0.52553228  0.93254423  0.26763214  1.0
  P  P5008  1  0.63664340  0.05754423  0.26763214  1.0
  P  P5009  1  0.63664340  0.18254423  0.26763214  1.0
  P  P5010  1  0.63664340  0.30754423  0.26763214  1.0
  P  P5011  1  0.63664340  0.43254423  0.26763214  1.0
  P  P5012  1  0.63664340  0.55754423  0.26763214  1.0
  P  P5013  1  0.63664340  0.68254423  0.26763214  1.0
  P  P5014  1  0.63664340  0.80754423  0.26763214  1.0
  P  P5015  1  0.63664340  0.93254423  0.26763214  1.0
  P  P5016  1  0.74775451  0.05754423  0.26763214  1.0
  P  P5017  1  0.74775451  0.18254423  0.26763214  1.0
  P  P5018  1  0.74775451  0.30754423  0.26763214  1.0
  P  P5019  1  0.74775451  0.43254423  0.26763214  1.0
  P  P5020  1  0.74775451  0.55754423  0.26763214  1.0
  P  P5021  1  0.74775451  0.68254423  0.26763214  1.0
  P  P5022  1  0.74775451  0.80754423  0.26763214  1.0
  P  P5023  1  0.74775451  0.93254423  0.26763214  1.0
  P  P5024  1  0.85886562  0.05754423  0.26763214  1.0
  P  P5025  1  0.85886562  0.18254423  0.26763214  1.0
  P  P5026  1  0.85886562  0.30754423  0.26763214  1.0
  P  P5027  1  0.85886562  0.43254423  0.26763214  1.0
  P  P5028  1  0.85886562  0.55754423  0.26763214  1.0
  P  P5029  1  0.85886562  0.68254423  0.26763214  1.0
  P  P5030  1  0.85886562  0.80754423  0.26763214  1.0
  P  P5031  1  0.85886562  0.93254423  0.26763214  1.0
  P  P5032  1  0.96997673  0.05754423  0.26763214  1.0
  P  P5033  1  0.96997673  0.18254423  0.26763214  1.0
  P  P5034  1  0.96997673  0.30754423  0.26763214  1.0
  P  P5035  1  0.96997673  0.43254423  0.26763214  1.0
  P  P5036  1  0.96997673  0.55754423  0.26763214  1.0
  P  P5037  1  0.96997673  0.68254423  0.26763214  1.0
  P  P5038  1  0.96997673  0.80754423  0.26763214  1.0
  P  P5039  1  0.96997673  0.93254423  0.26763214  1.0
  P  P5040  1  0.05463281  0.05754423  0.22001309  1.0
  P  P5041  1  0.05463281  0.18254423  0.22001309  1.0
  P  P5042  1  0.05463281  0.30754423  0.22001309  1.0
  P  P5043  1  0.05463281  0.43254423  0.22001309  1.0
  P  P5044  1  0.05463281  0.55754423  0.22001309  1.0
  P  P5045  1  0.05463281  0.68254423  0.22001309  1.0
  P  P5046  1  0.05463281  0.80754423  0.22001309  1.0
  P  P5047  1  0.05463281  0.93254423  0.22001309  1.0
  P  P5048  1  0.16574392  0.05754423  0.22001309  1.0
  P  P5049  1  0.16574392  0.18254423  0.22001309  1.0
  P  P5050  1  0.16574392  0.30754423  0.22001309  1.0
  P  P5051  1  0.16574392  0.43254423  0.22001309  1.0
  P  P5052  1  0.16574392  0.55754423  0.22001309  1.0
  P  P5053  1  0.16574392  0.68254423  0.22001309  1.0
  P  P5054  1  0.16574392  0.80754423  0.22001309  1.0
  P  P5055  1  0.16574392  0.93254423  0.22001309  1.0
  P  P5056  1  0.27685504  0.05754423  0.22001309  1.0
  P  P5057  1  0.27685504  0.18254423  0.22001309  1.0
  P  P5058  1  0.27685504  0.30754423  0.22001309  1.0
  P  P5059  1  0.27685504  0.43254423  0.22001309  1.0
  P  P5060  1  0.27685504  0.55754423  0.22001309  1.0
  P  P5061  1  0.27685504  0.68254423  0.22001309  1.0
  P  P5062  1  0.27685504  0.80754423  0.22001309  1.0
  P  P5063  1  0.27685504  0.93254423  0.22001309  1.0
  P  P5064  1  0.38796615  0.05754423  0.22001309  1.0
  P  P5065  1  0.38796615  0.18254423  0.22001309  1.0
  P  P5066  1  0.38796615  0.30754423  0.22001309  1.0
  P  P5067  1  0.38796615  0.43254423  0.22001309  1.0
  P  P5068  1  0.38796615  0.55754423  0.22001309  1.0
  P  P5069  1  0.38796615  0.68254423  0.22001309  1.0
  P  P5070  1  0.38796615  0.80754423  0.22001309  1.0
  P  P5071  1  0.38796615  0.93254423  0.22001309  1.0
  P  P5072  1  0.49907726  0.05754423  0.22001309  1.0
  P  P5073  1  0.49907726  0.18254423  0.22001309  1.0
  P  P5074  1  0.49907726  0.30754423  0.22001309  1.0
  P  P5075  1  0.49907726  0.43254423  0.22001309  1.0
  P  P5076  1  0.49907726  0.55754423  0.22001309  1.0
  P  P5077  1  0.49907726  0.68254423  0.22001309  1.0
  P  P5078  1  0.49907726  0.80754423  0.22001309  1.0
  P  P5079  1  0.49907726  0.93254423  0.22001309  1.0
  P  P5080  1  0.61018837  0.05754423  0.22001309  1.0
  P  P5081  1  0.61018837  0.18254423  0.22001309  1.0
  P  P5082  1  0.61018837  0.30754423  0.22001309  1.0
  P  P5083  1  0.61018837  0.43254423  0.22001309  1.0
  P  P5084  1  0.61018837  0.55754423  0.22001309  1.0
  P  P5085  1  0.61018837  0.68254423  0.22001309  1.0
  P  P5086  1  0.61018837  0.80754423  0.22001309  1.0
  P  P5087  1  0.61018837  0.93254423  0.22001309  1.0
  P  P5088  1  0.72129948  0.05754423  0.22001309  1.0
  P  P5089  1  0.72129948  0.18254423  0.22001309  1.0
  P  P5090  1  0.72129948  0.30754423  0.22001309  1.0
  P  P5091  1  0.72129948  0.43254423  0.22001309  1.0
  P  P5092  1  0.72129948  0.55754423  0.22001309  1.0
  P  P5093  1  0.72129948  0.68254423  0.22001309  1.0
  P  P5094  1  0.72129948  0.80754423  0.22001309  1.0
  P  P5095  1  0.72129948  0.93254423  0.22001309  1.0
  P  P5096  1  0.83241059  0.05754423  0.22001309  1.0
  P  P5097  1  0.83241059  0.18254423  0.22001309  1.0
  P  P5098  1  0.83241059  0.30754423  0.22001309  1.0
  P  P5099  1  0.83241059  0.43254423  0.22001309  1.0
  P  P5100  1  0.83241059  0.55754423  0.22001309  1.0
  P  P5101  1  0.83241059  0.68254423  0.22001309  1.0
  P  P5102  1  0.83241059  0.80754423  0.22001309  1.0
  P  P5103  1  0.83241059  0.93254423  0.22001309  1.0
  P  P5104  1  0.94352170  0.05754423  0.22001309  1.0
  P  P5105  1  0.94352170  0.18254423  0.22001309  1.0
  P  P5106  1  0.94352170  0.30754423  0.22001309  1.0
  P  P5107  1  0.94352170  0.43254423  0.22001309  1.0
  P  P5108  1  0.94352170  0.55754423  0.22001309  1.0
  P  P5109  1  0.94352170  0.68254423  0.22001309  1.0
  P  P5110  1  0.94352170  0.80754423  0.22001309  1.0
  P  P5111  1  0.94352170  0.93254423  0.22001309  1.0
  P  P5112  1  0.10754287  0.05754423  0.31525119  1.0
  P  P5113  1  0.10754287  0.18254423  0.31525119  1.0
  P  P5114  1  0.10754287  0.30754423  0.31525119  1.0
  P  P5115  1  0.10754287  0.43254423  0.31525119  1.0
  P  P5116  1  0.10754287  0.55754423  0.31525119  1.0
  P  P5117  1  0.10754287  0.68254423  0.31525119  1.0
  P  P5118  1  0.10754287  0.80754423  0.31525119  1.0
  P  P5119  1  0.10754287  0.93254423  0.31525119  1.0
  P  P5120  1  0.21865398  0.05754423  0.31525119  1.0
  P  P5121  1  0.21865398  0.18254423  0.31525119  1.0
  P  P5122  1  0.21865398  0.30754423  0.31525119  1.0
  P  P5123  1  0.21865398  0.43254423  0.31525119  1.0
  P  P5124  1  0.21865398  0.55754423  0.31525119  1.0
  P  P5125  1  0.21865398  0.68254423  0.31525119  1.0
  P  P5126  1  0.21865398  0.80754423  0.31525119  1.0
  P  P5127  1  0.21865398  0.93254423  0.31525119  1.0
  P  P5128  1  0.32976509  0.05754423  0.31525119  1.0
  P  P5129  1  0.32976509  0.18254423  0.31525119  1.0
  P  P5130  1  0.32976509  0.30754423  0.31525119  1.0
  P  P5131  1  0.32976509  0.43254423  0.31525119  1.0
  P  P5132  1  0.32976509  0.55754423  0.31525119  1.0
  P  P5133  1  0.32976509  0.68254423  0.31525119  1.0
  P  P5134  1  0.32976509  0.80754423  0.31525119  1.0
  P  P5135  1  0.32976509  0.93254423  0.31525119  1.0
  P  P5136  1  0.44087620  0.05754423  0.31525119  1.0
  P  P5137  1  0.44087620  0.18254423  0.31525119  1.0
  P  P5138  1  0.44087620  0.30754423  0.31525119  1.0
  P  P5139  1  0.44087620  0.43254423  0.31525119  1.0
  P  P5140  1  0.44087620  0.55754423  0.31525119  1.0
  P  P5141  1  0.44087620  0.68254423  0.31525119  1.0
  P  P5142  1  0.44087620  0.80754423  0.31525119  1.0
  P  P5143  1  0.44087620  0.93254423  0.31525119  1.0
  P  P5144  1  0.55198731  0.05754423  0.31525119  1.0
  P  P5145  1  0.55198731  0.18254423  0.31525119  1.0
  P  P5146  1  0.55198731  0.30754423  0.31525119  1.0
  P  P5147  1  0.55198731  0.43254423  0.31525119  1.0
  P  P5148  1  0.55198731  0.55754423  0.31525119  1.0
  P  P5149  1  0.55198731  0.68254423  0.31525119  1.0
  P  P5150  1  0.55198731  0.80754423  0.31525119  1.0
  P  P5151  1  0.55198731  0.93254423  0.31525119  1.0
  P  P5152  1  0.66309842  0.05754423  0.31525119  1.0
  P  P5153  1  0.66309842  0.18254423  0.31525119  1.0
  P  P5154  1  0.66309842  0.30754423  0.31525119  1.0
  P  P5155  1  0.66309842  0.43254423  0.31525119  1.0
  P  P5156  1  0.66309842  0.55754423  0.31525119  1.0
  P  P5157  1  0.66309842  0.68254423  0.31525119  1.0
  P  P5158  1  0.66309842  0.80754423  0.31525119  1.0
  P  P5159  1  0.66309842  0.93254423  0.31525119  1.0
  P  P5160  1  0.77420953  0.05754423  0.31525119  1.0
  P  P5161  1  0.77420953  0.18254423  0.31525119  1.0
  P  P5162  1  0.77420953  0.30754423  0.31525119  1.0
  P  P5163  1  0.77420953  0.43254423  0.31525119  1.0
  P  P5164  1  0.77420953  0.55754423  0.31525119  1.0
  P  P5165  1  0.77420953  0.68254423  0.31525119  1.0
  P  P5166  1  0.77420953  0.80754423  0.31525119  1.0
  P  P5167  1  0.77420953  0.93254423  0.31525119  1.0
  P  P5168  1  0.88532064  0.05754423  0.31525119  1.0
  P  P5169  1  0.88532064  0.18254423  0.31525119  1.0
  P  P5170  1  0.88532064  0.30754423  0.31525119  1.0
  P  P5171  1  0.88532064  0.43254423  0.31525119  1.0
  P  P5172  1  0.88532064  0.55754423  0.31525119  1.0
  P  P5173  1  0.88532064  0.68254423  0.31525119  1.0
  P  P5174  1  0.88532064  0.80754423  0.31525119  1.0
  P  P5175  1  0.88532064  0.93254423  0.31525119  1.0
  P  P5176  1  0.99643176  0.05754423  0.31525119  1.0
  P  P5177  1  0.99643176  0.18254423  0.31525119  1.0
  P  P5178  1  0.99643176  0.30754423  0.31525119  1.0
  P  P5179  1  0.99643176  0.43254423  0.31525119  1.0
  P  P5180  1  0.99643176  0.55754423  0.31525119  1.0
  P  P5181  1  0.99643176  0.68254423  0.31525119  1.0
  P  P5182  1  0.99643176  0.80754423  0.31525119  1.0
  P  P5183  1  0.99643176  0.93254423  0.31525119  1.0
  P  P5184  1  0.05208377  0.10787809  0.40894693  1.0
  P  P5185  1  0.05208377  0.23287809  0.40894693  1.0
  P  P5186  1  0.05208377  0.35787809  0.40894693  1.0
  P  P5187  1  0.05208377  0.48287809  0.40894693  1.0
  P  P5188  1  0.05208377  0.60787809  0.40894693  1.0
  P  P5189  1  0.05208377  0.73287809  0.40894693  1.0
  P  P5190  1  0.05208377  0.85787809  0.40894693  1.0
  P  P5191  1  0.05208377  0.98287809  0.40894693  1.0
  P  P5192  1  0.16319488  0.10787809  0.40894693  1.0
  P  P5193  1  0.16319488  0.23287809  0.40894693  1.0
  P  P5194  1  0.16319488  0.35787809  0.40894693  1.0
  P  P5195  1  0.16319488  0.48287809  0.40894693  1.0
  P  P5196  1  0.16319488  0.60787809  0.40894693  1.0
  P  P5197  1  0.16319488  0.73287809  0.40894693  1.0
  P  P5198  1  0.16319488  0.85787809  0.40894693  1.0
  P  P5199  1  0.16319488  0.98287809  0.40894693  1.0
  P  P5200  1  0.27430599  0.10787809  0.40894693  1.0
  P  P5201  1  0.27430599  0.23287809  0.40894693  1.0
  P  P5202  1  0.27430599  0.35787809  0.40894693  1.0
  P  P5203  1  0.27430599  0.48287809  0.40894693  1.0
  P  P5204  1  0.27430599  0.60787809  0.40894693  1.0
  P  P5205  1  0.27430599  0.73287809  0.40894693  1.0
  P  P5206  1  0.27430599  0.85787809  0.40894693  1.0
  P  P5207  1  0.27430599  0.98287809  0.40894693  1.0
  P  P5208  1  0.38541711  0.10787809  0.40894693  1.0
  P  P5209  1  0.38541711  0.23287809  0.40894693  1.0
  P  P5210  1  0.38541711  0.35787809  0.40894693  1.0
  P  P5211  1  0.38541711  0.48287809  0.40894693  1.0
  P  P5212  1  0.38541711  0.60787809  0.40894693  1.0
  P  P5213  1  0.38541711  0.73287809  0.40894693  1.0
  P  P5214  1  0.38541711  0.85787809  0.40894693  1.0
  P  P5215  1  0.38541711  0.98287809  0.40894693  1.0
  P  P5216  1  0.49652822  0.10787809  0.40894693  1.0
  P  P5217  1  0.49652822  0.23287809  0.40894693  1.0
  P  P5218  1  0.49652822  0.35787809  0.40894693  1.0
  P  P5219  1  0.49652822  0.48287809  0.40894693  1.0
  P  P5220  1  0.49652822  0.60787809  0.40894693  1.0
  P  P5221  1  0.49652822  0.73287809  0.40894693  1.0
  P  P5222  1  0.49652822  0.85787809  0.40894693  1.0
  P  P5223  1  0.49652822  0.98287809  0.40894693  1.0
  P  P5224  1  0.60763933  0.10787809  0.40894693  1.0
  P  P5225  1  0.60763933  0.23287809  0.40894693  1.0
  P  P5226  1  0.60763933  0.35787809  0.40894693  1.0
  P  P5227  1  0.60763933  0.48287809  0.40894693  1.0
  P  P5228  1  0.60763933  0.60787809  0.40894693  1.0
  P  P5229  1  0.60763933  0.73287809  0.40894693  1.0
  P  P5230  1  0.60763933  0.85787809  0.40894693  1.0
  P  P5231  1  0.60763933  0.98287809  0.40894693  1.0
  P  P5232  1  0.71875044  0.10787809  0.40894693  1.0
  P  P5233  1  0.71875044  0.23287809  0.40894693  1.0
  P  P5234  1  0.71875044  0.35787809  0.40894693  1.0
  P  P5235  1  0.71875044  0.48287809  0.40894693  1.0
  P  P5236  1  0.71875044  0.60787809  0.40894693  1.0
  P  P5237  1  0.71875044  0.73287809  0.40894693  1.0
  P  P5238  1  0.71875044  0.85787809  0.40894693  1.0
  P  P5239  1  0.71875044  0.98287809  0.40894693  1.0
  P  P5240  1  0.82986155  0.10787809  0.40894693  1.0
  P  P5241  1  0.82986155  0.23287809  0.40894693  1.0
  P  P5242  1  0.82986155  0.35787809  0.40894693  1.0
  P  P5243  1  0.82986155  0.48287809  0.40894693  1.0
  P  P5244  1  0.82986155  0.60787809  0.40894693  1.0
  P  P5245  1  0.82986155  0.73287809  0.40894693  1.0
  P  P5246  1  0.82986155  0.85787809  0.40894693  1.0
  P  P5247  1  0.82986155  0.98287809  0.40894693  1.0
  P  P5248  1  0.94097266  0.10787809  0.40894693  1.0
  P  P5249  1  0.94097266  0.23287809  0.40894693  1.0
  P  P5250  1  0.94097266  0.35787809  0.40894693  1.0
  P  P5251  1  0.94097266  0.48287809  0.40894693  1.0
  P  P5252  1  0.94097266  0.60787809  0.40894693  1.0
  P  P5253  1  0.94097266  0.73287809  0.40894693  1.0
  P  P5254  1  0.94097266  0.85787809  0.40894693  1.0
  P  P5255  1  0.94097266  0.98287809  0.40894693  1.0
  P  P5256  1  0.02562875  0.10787809  0.36132788  1.0
  P  P5257  1  0.02562875  0.23287809  0.36132788  1.0
  P  P5258  1  0.02562875  0.35787809  0.36132788  1.0
  P  P5259  1  0.02562875  0.48287809  0.36132788  1.0
  P  P5260  1  0.02562875  0.60787809  0.36132788  1.0
  P  P5261  1  0.02562875  0.73287809  0.36132788  1.0
  P  P5262  1  0.02562875  0.85787809  0.36132788  1.0
  P  P5263  1  0.02562875  0.98287809  0.36132788  1.0
  P  P5264  1  0.13673986  0.10787809  0.36132788  1.0
  P  P5265  1  0.13673986  0.23287809  0.36132788  1.0
  P  P5266  1  0.13673986  0.35787809  0.36132788  1.0
  P  P5267  1  0.13673986  0.48287809  0.36132788  1.0
  P  P5268  1  0.13673986  0.60787809  0.36132788  1.0
  P  P5269  1  0.13673986  0.73287809  0.36132788  1.0
  P  P5270  1  0.13673986  0.85787809  0.36132788  1.0
  P  P5271  1  0.13673986  0.98287809  0.36132788  1.0
  P  P5272  1  0.24785097  0.10787809  0.36132788  1.0
  P  P5273  1  0.24785097  0.23287809  0.36132788  1.0
  P  P5274  1  0.24785097  0.35787809  0.36132788  1.0
  P  P5275  1  0.24785097  0.48287809  0.36132788  1.0
  P  P5276  1  0.24785097  0.60787809  0.36132788  1.0
  P  P5277  1  0.24785097  0.73287809  0.36132788  1.0
  P  P5278  1  0.24785097  0.85787809  0.36132788  1.0
  P  P5279  1  0.24785097  0.98287809  0.36132788  1.0
  P  P5280  1  0.35896208  0.10787809  0.36132788  1.0
  P  P5281  1  0.35896208  0.23287809  0.36132788  1.0
  P  P5282  1  0.35896208  0.35787809  0.36132788  1.0
  P  P5283  1  0.35896208  0.48287809  0.36132788  1.0
  P  P5284  1  0.35896208  0.60787809  0.36132788  1.0
  P  P5285  1  0.35896208  0.73287809  0.36132788  1.0
  P  P5286  1  0.35896208  0.85787809  0.36132788  1.0
  P  P5287  1  0.35896208  0.98287809  0.36132788  1.0
  P  P5288  1  0.47007319  0.10787809  0.36132788  1.0
  P  P5289  1  0.47007319  0.23287809  0.36132788  1.0
  P  P5290  1  0.47007319  0.35787809  0.36132788  1.0
  P  P5291  1  0.47007319  0.48287809  0.36132788  1.0
  P  P5292  1  0.47007319  0.60787809  0.36132788  1.0
  P  P5293  1  0.47007319  0.73287809  0.36132788  1.0
  P  P5294  1  0.47007319  0.85787809  0.36132788  1.0
  P  P5295  1  0.47007319  0.98287809  0.36132788  1.0
  P  P5296  1  0.58118430  0.10787809  0.36132788  1.0
  P  P5297  1  0.58118430  0.23287809  0.36132788  1.0
  P  P5298  1  0.58118430  0.35787809  0.36132788  1.0
  P  P5299  1  0.58118430  0.48287809  0.36132788  1.0
  P  P5300  1  0.58118430  0.60787809  0.36132788  1.0
  P  P5301  1  0.58118430  0.73287809  0.36132788  1.0
  P  P5302  1  0.58118430  0.85787809  0.36132788  1.0
  P  P5303  1  0.58118430  0.98287809  0.36132788  1.0
  P  P5304  1  0.69229541  0.10787809  0.36132788  1.0
  P  P5305  1  0.69229541  0.23287809  0.36132788  1.0
  P  P5306  1  0.69229541  0.35787809  0.36132788  1.0
  P  P5307  1  0.69229541  0.48287809  0.36132788  1.0
  P  P5308  1  0.69229541  0.60787809  0.36132788  1.0
  P  P5309  1  0.69229541  0.73287809  0.36132788  1.0
  P  P5310  1  0.69229541  0.85787809  0.36132788  1.0
  P  P5311  1  0.69229541  0.98287809  0.36132788  1.0
  P  P5312  1  0.80340652  0.10787809  0.36132788  1.0
  P  P5313  1  0.80340652  0.23287809  0.36132788  1.0
  P  P5314  1  0.80340652  0.35787809  0.36132788  1.0
  P  P5315  1  0.80340652  0.48287809  0.36132788  1.0
  P  P5316  1  0.80340652  0.60787809  0.36132788  1.0
  P  P5317  1  0.80340652  0.73287809  0.36132788  1.0
  P  P5318  1  0.80340652  0.85787809  0.36132788  1.0
  P  P5319  1  0.80340652  0.98287809  0.36132788  1.0
  P  P5320  1  0.91451763  0.10787809  0.36132788  1.0
  P  P5321  1  0.91451763  0.23287809  0.36132788  1.0
  P  P5322  1  0.91451763  0.35787809  0.36132788  1.0
  P  P5323  1  0.91451763  0.48287809  0.36132788  1.0
  P  P5324  1  0.91451763  0.60787809  0.36132788  1.0
  P  P5325  1  0.91451763  0.73287809  0.36132788  1.0
  P  P5326  1  0.91451763  0.85787809  0.36132788  1.0
  P  P5327  1  0.91451763  0.98287809  0.36132788  1.0
  P  P5328  1  0.07853880  0.10787809  0.45656597  1.0
  P  P5329  1  0.07853880  0.23287809  0.45656597  1.0
  P  P5330  1  0.07853880  0.35787809  0.45656597  1.0
  P  P5331  1  0.07853880  0.48287809  0.45656597  1.0
  P  P5332  1  0.07853880  0.60787809  0.45656597  1.0
  P  P5333  1  0.07853880  0.73287809  0.45656597  1.0
  P  P5334  1  0.07853880  0.85787809  0.45656597  1.0
  P  P5335  1  0.07853880  0.98287809  0.45656597  1.0
  P  P5336  1  0.18964991  0.10787809  0.45656597  1.0
  P  P5337  1  0.18964991  0.23287809  0.45656597  1.0
  P  P5338  1  0.18964991  0.35787809  0.45656597  1.0
  P  P5339  1  0.18964991  0.48287809  0.45656597  1.0
  P  P5340  1  0.18964991  0.60787809  0.45656597  1.0
  P  P5341  1  0.18964991  0.73287809  0.45656597  1.0
  P  P5342  1  0.18964991  0.85787809  0.45656597  1.0
  P  P5343  1  0.18964991  0.98287809  0.45656597  1.0
  P  P5344  1  0.30076102  0.10787809  0.45656597  1.0
  P  P5345  1  0.30076102  0.23287809  0.45656597  1.0
  P  P5346  1  0.30076102  0.35787809  0.45656597  1.0
  P  P5347  1  0.30076102  0.48287809  0.45656597  1.0
  P  P5348  1  0.30076102  0.60787809  0.45656597  1.0
  P  P5349  1  0.30076102  0.73287809  0.45656597  1.0
  P  P5350  1  0.30076102  0.85787809  0.45656597  1.0
  P  P5351  1  0.30076102  0.98287809  0.45656597  1.0
  P  P5352  1  0.41187213  0.10787809  0.45656597  1.0
  P  P5353  1  0.41187213  0.23287809  0.45656597  1.0
  P  P5354  1  0.41187213  0.35787809  0.45656597  1.0
  P  P5355  1  0.41187213  0.48287809  0.45656597  1.0
  P  P5356  1  0.41187213  0.60787809  0.45656597  1.0
  P  P5357  1  0.41187213  0.73287809  0.45656597  1.0
  P  P5358  1  0.41187213  0.85787809  0.45656597  1.0
  P  P5359  1  0.41187213  0.98287809  0.45656597  1.0
  P  P5360  1  0.52298324  0.10787809  0.45656597  1.0
  P  P5361  1  0.52298324  0.23287809  0.45656597  1.0
  P  P5362  1  0.52298324  0.35787809  0.45656597  1.0
  P  P5363  1  0.52298324  0.48287809  0.45656597  1.0
  P  P5364  1  0.52298324  0.60787809  0.45656597  1.0
  P  P5365  1  0.52298324  0.73287809  0.45656597  1.0
  P  P5366  1  0.52298324  0.85787809  0.45656597  1.0
  P  P5367  1  0.52298324  0.98287809  0.45656597  1.0
  P  P5368  1  0.63409435  0.10787809  0.45656597  1.0
  P  P5369  1  0.63409435  0.23287809  0.45656597  1.0
  P  P5370  1  0.63409435  0.35787809  0.45656597  1.0
  P  P5371  1  0.63409435  0.48287809  0.45656597  1.0
  P  P5372  1  0.63409435  0.60787809  0.45656597  1.0
  P  P5373  1  0.63409435  0.73287809  0.45656597  1.0
  P  P5374  1  0.63409435  0.85787809  0.45656597  1.0
  P  P5375  1  0.63409435  0.98287809  0.45656597  1.0
  P  P5376  1  0.74520547  0.10787809  0.45656597  1.0
  P  P5377  1  0.74520547  0.23287809  0.45656597  1.0
  P  P5378  1  0.74520547  0.35787809  0.45656597  1.0
  P  P5379  1  0.74520547  0.48287809  0.45656597  1.0
  P  P5380  1  0.74520547  0.60787809  0.45656597  1.0
  P  P5381  1  0.74520547  0.73287809  0.45656597  1.0
  P  P5382  1  0.74520547  0.85787809  0.45656597  1.0
  P  P5383  1  0.74520547  0.98287809  0.45656597  1.0
  P  P5384  1  0.85631658  0.10787809  0.45656597  1.0
  P  P5385  1  0.85631658  0.23287809  0.45656597  1.0
  P  P5386  1  0.85631658  0.35787809  0.45656597  1.0
  P  P5387  1  0.85631658  0.48287809  0.45656597  1.0
  P  P5388  1  0.85631658  0.60787809  0.45656597  1.0
  P  P5389  1  0.85631658  0.73287809  0.45656597  1.0
  P  P5390  1  0.85631658  0.85787809  0.45656597  1.0
  P  P5391  1  0.85631658  0.98287809  0.45656597  1.0
  P  P5392  1  0.96742769  0.10787809  0.45656597  1.0
  P  P5393  1  0.96742769  0.23287809  0.45656597  1.0
  P  P5394  1  0.96742769  0.35787809  0.45656597  1.0
  P  P5395  1  0.96742769  0.48287809  0.45656597  1.0
  P  P5396  1  0.96742769  0.60787809  0.45656597  1.0
  P  P5397  1  0.96742769  0.73287809  0.45656597  1.0
  P  P5398  1  0.96742769  0.85787809  0.45656597  1.0
  P  P5399  1  0.96742769  0.98287809  0.45656597  1.0
  P  P5400  1  0.05373633  0.01712191  0.37676736  1.0
  P  P5401  1  0.05373633  0.14212191  0.37676736  1.0
  P  P5402  1  0.05373633  0.26712191  0.37676736  1.0
  P  P5403  1  0.05373633  0.39212191  0.37676736  1.0
  P  P5404  1  0.05373633  0.51712191  0.37676736  1.0
  P  P5405  1  0.05373633  0.64212191  0.37676736  1.0
  P  P5406  1  0.05373633  0.76712191  0.37676736  1.0
  P  P5407  1  0.05373633  0.89212191  0.37676736  1.0
  P  P5408  1  0.16484744  0.01712191  0.37676736  1.0
  P  P5409  1  0.16484744  0.14212191  0.37676736  1.0
  P  P5410  1  0.16484744  0.26712191  0.37676736  1.0
  P  P5411  1  0.16484744  0.39212191  0.37676736  1.0
  P  P5412  1  0.16484744  0.51712191  0.37676736  1.0
  P  P5413  1  0.16484744  0.64212191  0.37676736  1.0
  P  P5414  1  0.16484744  0.76712191  0.37676736  1.0
  P  P5415  1  0.16484744  0.89212191  0.37676736  1.0
  P  P5416  1  0.27595856  0.01712191  0.37676736  1.0
  P  P5417  1  0.27595856  0.14212191  0.37676736  1.0
  P  P5418  1  0.27595856  0.26712191  0.37676736  1.0
  P  P5419  1  0.27595856  0.39212191  0.37676736  1.0
  P  P5420  1  0.27595856  0.51712191  0.37676736  1.0
  P  P5421  1  0.27595856  0.64212191  0.37676736  1.0
  P  P5422  1  0.27595856  0.76712191  0.37676736  1.0
  P  P5423  1  0.27595856  0.89212191  0.37676736  1.0
  P  P5424  1  0.38706967  0.01712191  0.37676736  1.0
  P  P5425  1  0.38706967  0.14212191  0.37676736  1.0
  P  P5426  1  0.38706967  0.26712191  0.37676736  1.0
  P  P5427  1  0.38706967  0.39212191  0.37676736  1.0
  P  P5428  1  0.38706967  0.51712191  0.37676736  1.0
  P  P5429  1  0.38706967  0.64212191  0.37676736  1.0
  P  P5430  1  0.38706967  0.76712191  0.37676736  1.0
  P  P5431  1  0.38706967  0.89212191  0.37676736  1.0
  P  P5432  1  0.49818078  0.01712191  0.37676736  1.0
  P  P5433  1  0.49818078  0.14212191  0.37676736  1.0
  P  P5434  1  0.49818078  0.26712191  0.37676736  1.0
  P  P5435  1  0.49818078  0.39212191  0.37676736  1.0
  P  P5436  1  0.49818078  0.51712191  0.37676736  1.0
  P  P5437  1  0.49818078  0.64212191  0.37676736  1.0
  P  P5438  1  0.49818078  0.76712191  0.37676736  1.0
  P  P5439  1  0.49818078  0.89212191  0.37676736  1.0
  P  P5440  1  0.60929189  0.01712191  0.37676736  1.0
  P  P5441  1  0.60929189  0.14212191  0.37676736  1.0
  P  P5442  1  0.60929189  0.26712191  0.37676736  1.0
  P  P5443  1  0.60929189  0.39212191  0.37676736  1.0
  P  P5444  1  0.60929189  0.51712191  0.37676736  1.0
  P  P5445  1  0.60929189  0.64212191  0.37676736  1.0
  P  P5446  1  0.60929189  0.76712191  0.37676736  1.0
  P  P5447  1  0.60929189  0.89212191  0.37676736  1.0
  P  P5448  1  0.72040300  0.01712191  0.37676736  1.0
  P  P5449  1  0.72040300  0.14212191  0.37676736  1.0
  P  P5450  1  0.72040300  0.26712191  0.37676736  1.0
  P  P5451  1  0.72040300  0.39212191  0.37676736  1.0
  P  P5452  1  0.72040300  0.51712191  0.37676736  1.0
  P  P5453  1  0.72040300  0.64212191  0.37676736  1.0
  P  P5454  1  0.72040300  0.76712191  0.37676736  1.0
  P  P5455  1  0.72040300  0.89212191  0.37676736  1.0
  P  P5456  1  0.83151411  0.01712191  0.37676736  1.0
  P  P5457  1  0.83151411  0.14212191  0.37676736  1.0
  P  P5458  1  0.83151411  0.26712191  0.37676736  1.0
  P  P5459  1  0.83151411  0.39212191  0.37676736  1.0
  P  P5460  1  0.83151411  0.51712191  0.37676736  1.0
  P  P5461  1  0.83151411  0.64212191  0.37676736  1.0
  P  P5462  1  0.83151411  0.76712191  0.37676736  1.0
  P  P5463  1  0.83151411  0.89212191  0.37676736  1.0
  P  P5464  1  0.94262522  0.01712191  0.37676736  1.0
  P  P5465  1  0.94262522  0.14212191  0.37676736  1.0
  P  P5466  1  0.94262522  0.26712191  0.37676736  1.0
  P  P5467  1  0.94262522  0.39212191  0.37676736  1.0
  P  P5468  1  0.94262522  0.51712191  0.37676736  1.0
  P  P5469  1  0.94262522  0.64212191  0.37676736  1.0
  P  P5470  1  0.94262522  0.76712191  0.37676736  1.0
  P  P5471  1  0.94262522  0.89212191  0.37676736  1.0
  P  P5472  1  0.10664639  0.01712191  0.47200546  1.0
  P  P5473  1  0.10664639  0.14212191  0.47200546  1.0
  P  P5474  1  0.10664639  0.26712191  0.47200546  1.0
  P  P5475  1  0.10664639  0.39212191  0.47200546  1.0
  P  P5476  1  0.10664639  0.51712191  0.47200546  1.0
  P  P5477  1  0.10664639  0.64212191  0.47200546  1.0
  P  P5478  1  0.10664639  0.76712191  0.47200546  1.0
  P  P5479  1  0.10664639  0.89212191  0.47200546  1.0
  P  P5480  1  0.21775750  0.01712191  0.47200546  1.0
  P  P5481  1  0.21775750  0.14212191  0.47200546  1.0
  P  P5482  1  0.21775750  0.26712191  0.47200546  1.0
  P  P5483  1  0.21775750  0.39212191  0.47200546  1.0
  P  P5484  1  0.21775750  0.51712191  0.47200546  1.0
  P  P5485  1  0.21775750  0.64212191  0.47200546  1.0
  P  P5486  1  0.21775750  0.76712191  0.47200546  1.0
  P  P5487  1  0.21775750  0.89212191  0.47200546  1.0
  P  P5488  1  0.32886861  0.01712191  0.47200546  1.0
  P  P5489  1  0.32886861  0.14212191  0.47200546  1.0
  P  P5490  1  0.32886861  0.26712191  0.47200546  1.0
  P  P5491  1  0.32886861  0.39212191  0.47200546  1.0
  P  P5492  1  0.32886861  0.51712191  0.47200546  1.0
  P  P5493  1  0.32886861  0.64212191  0.47200546  1.0
  P  P5494  1  0.32886861  0.76712191  0.47200546  1.0
  P  P5495  1  0.32886861  0.89212191  0.47200546  1.0
  P  P5496  1  0.43997972  0.01712191  0.47200546  1.0
  P  P5497  1  0.43997972  0.14212191  0.47200546  1.0
  P  P5498  1  0.43997972  0.26712191  0.47200546  1.0
  P  P5499  1  0.43997972  0.39212191  0.47200546  1.0
  P  P5500  1  0.43997972  0.51712191  0.47200546  1.0
  P  P5501  1  0.43997972  0.64212191  0.47200546  1.0
  P  P5502  1  0.43997972  0.76712191  0.47200546  1.0
  P  P5503  1  0.43997972  0.89212191  0.47200546  1.0
  P  P5504  1  0.55109083  0.01712191  0.47200546  1.0
  P  P5505  1  0.55109083  0.14212191  0.47200546  1.0
  P  P5506  1  0.55109083  0.26712191  0.47200546  1.0
  P  P5507  1  0.55109083  0.39212191  0.47200546  1.0
  P  P5508  1  0.55109083  0.51712191  0.47200546  1.0
  P  P5509  1  0.55109083  0.64212191  0.47200546  1.0
  P  P5510  1  0.55109083  0.76712191  0.47200546  1.0
  P  P5511  1  0.55109083  0.89212191  0.47200546  1.0
  P  P5512  1  0.66220194  0.01712191  0.47200546  1.0
  P  P5513  1  0.66220194  0.14212191  0.47200546  1.0
  P  P5514  1  0.66220194  0.26712191  0.47200546  1.0
  P  P5515  1  0.66220194  0.39212191  0.47200546  1.0
  P  P5516  1  0.66220194  0.51712191  0.47200546  1.0
  P  P5517  1  0.66220194  0.64212191  0.47200546  1.0
  P  P5518  1  0.66220194  0.76712191  0.47200546  1.0
  P  P5519  1  0.66220194  0.89212191  0.47200546  1.0
  P  P5520  1  0.77331305  0.01712191  0.47200546  1.0
  P  P5521  1  0.77331305  0.14212191  0.47200546  1.0
  P  P5522  1  0.77331305  0.26712191  0.47200546  1.0
  P  P5523  1  0.77331305  0.39212191  0.47200546  1.0
  P  P5524  1  0.77331305  0.51712191  0.47200546  1.0
  P  P5525  1  0.77331305  0.64212191  0.47200546  1.0
  P  P5526  1  0.77331305  0.76712191  0.47200546  1.0
  P  P5527  1  0.77331305  0.89212191  0.47200546  1.0
  P  P5528  1  0.88442416  0.01712191  0.47200546  1.0
  P  P5529  1  0.88442416  0.14212191  0.47200546  1.0
  P  P5530  1  0.88442416  0.26712191  0.47200546  1.0
  P  P5531  1  0.88442416  0.39212191  0.47200546  1.0
  P  P5532  1  0.88442416  0.51712191  0.47200546  1.0
  P  P5533  1  0.88442416  0.64212191  0.47200546  1.0
  P  P5534  1  0.88442416  0.76712191  0.47200546  1.0
  P  P5535  1  0.88442416  0.89212191  0.47200546  1.0
  P  P5536  1  0.99553528  0.01712191  0.47200546  1.0
  P  P5537  1  0.99553528  0.14212191  0.47200546  1.0
  P  P5538  1  0.99553528  0.26712191  0.47200546  1.0
  P  P5539  1  0.99553528  0.39212191  0.47200546  1.0
  P  P5540  1  0.99553528  0.51712191  0.47200546  1.0
  P  P5541  1  0.99553528  0.64212191  0.47200546  1.0
  P  P5542  1  0.99553528  0.76712191  0.47200546  1.0
  P  P5543  1  0.99553528  0.89212191  0.47200546  1.0
  P  P5544  1  0.08019136  0.01712191  0.42438641  1.0
  P  P5545  1  0.08019136  0.14212191  0.42438641  1.0
  P  P5546  1  0.08019136  0.26712191  0.42438641  1.0
  P  P5547  1  0.08019136  0.39212191  0.42438641  1.0
  P  P5548  1  0.08019136  0.51712191  0.42438641  1.0
  P  P5549  1  0.08019136  0.64212191  0.42438641  1.0
  P  P5550  1  0.08019136  0.76712191  0.42438641  1.0
  P  P5551  1  0.08019136  0.89212191  0.42438641  1.0
  P  P5552  1  0.19130247  0.01712191  0.42438641  1.0
  P  P5553  1  0.19130247  0.14212191  0.42438641  1.0
  P  P5554  1  0.19130247  0.26712191  0.42438641  1.0
  P  P5555  1  0.19130247  0.39212191  0.42438641  1.0
  P  P5556  1  0.19130247  0.51712191  0.42438641  1.0
  P  P5557  1  0.19130247  0.64212191  0.42438641  1.0
  P  P5558  1  0.19130247  0.76712191  0.42438641  1.0
  P  P5559  1  0.19130247  0.89212191  0.42438641  1.0
  P  P5560  1  0.30241358  0.01712191  0.42438641  1.0
  P  P5561  1  0.30241358  0.14212191  0.42438641  1.0
  P  P5562  1  0.30241358  0.26712191  0.42438641  1.0
  P  P5563  1  0.30241358  0.39212191  0.42438641  1.0
  P  P5564  1  0.30241358  0.51712191  0.42438641  1.0
  P  P5565  1  0.30241358  0.64212191  0.42438641  1.0
  P  P5566  1  0.30241358  0.76712191  0.42438641  1.0
  P  P5567  1  0.30241358  0.89212191  0.42438641  1.0
  P  P5568  1  0.41352469  0.01712191  0.42438641  1.0
  P  P5569  1  0.41352469  0.14212191  0.42438641  1.0
  P  P5570  1  0.41352469  0.26712191  0.42438641  1.0
  P  P5571  1  0.41352469  0.39212191  0.42438641  1.0
  P  P5572  1  0.41352469  0.51712191  0.42438641  1.0
  P  P5573  1  0.41352469  0.64212191  0.42438641  1.0
  P  P5574  1  0.41352469  0.76712191  0.42438641  1.0
  P  P5575  1  0.41352469  0.89212191  0.42438641  1.0
  P  P5576  1  0.52463580  0.01712191  0.42438641  1.0
  P  P5577  1  0.52463580  0.14212191  0.42438641  1.0
  P  P5578  1  0.52463580  0.26712191  0.42438641  1.0
  P  P5579  1  0.52463580  0.39212191  0.42438641  1.0
  P  P5580  1  0.52463580  0.51712191  0.42438641  1.0
  P  P5581  1  0.52463580  0.64212191  0.42438641  1.0
  P  P5582  1  0.52463580  0.76712191  0.42438641  1.0
  P  P5583  1  0.52463580  0.89212191  0.42438641  1.0
  P  P5584  1  0.63574692  0.01712191  0.42438641  1.0
  P  P5585  1  0.63574692  0.14212191  0.42438641  1.0
  P  P5586  1  0.63574692  0.26712191  0.42438641  1.0
  P  P5587  1  0.63574692  0.39212191  0.42438641  1.0
  P  P5588  1  0.63574692  0.51712191  0.42438641  1.0
  P  P5589  1  0.63574692  0.64212191  0.42438641  1.0
  P  P5590  1  0.63574692  0.76712191  0.42438641  1.0
  P  P5591  1  0.63574692  0.89212191  0.42438641  1.0
  P  P5592  1  0.74685803  0.01712191  0.42438641  1.0
  P  P5593  1  0.74685803  0.14212191  0.42438641  1.0
  P  P5594  1  0.74685803  0.26712191  0.42438641  1.0
  P  P5595  1  0.74685803  0.39212191  0.42438641  1.0
  P  P5596  1  0.74685803  0.51712191  0.42438641  1.0
  P  P5597  1  0.74685803  0.64212191  0.42438641  1.0
  P  P5598  1  0.74685803  0.76712191  0.42438641  1.0
  P  P5599  1  0.74685803  0.89212191  0.42438641  1.0
  P  P5600  1  0.85796914  0.01712191  0.42438641  1.0
  P  P5601  1  0.85796914  0.14212191  0.42438641  1.0
  P  P5602  1  0.85796914  0.26712191  0.42438641  1.0
  P  P5603  1  0.85796914  0.39212191  0.42438641  1.0
  P  P5604  1  0.85796914  0.51712191  0.42438641  1.0
  P  P5605  1  0.85796914  0.64212191  0.42438641  1.0
  P  P5606  1  0.85796914  0.76712191  0.42438641  1.0
  P  P5607  1  0.85796914  0.89212191  0.42438641  1.0
  P  P5608  1  0.96908025  0.01712191  0.42438641  1.0
  P  P5609  1  0.96908025  0.14212191  0.42438641  1.0
  P  P5610  1  0.96908025  0.26712191  0.42438641  1.0
  P  P5611  1  0.96908025  0.39212191  0.42438641  1.0
  P  P5612  1  0.96908025  0.51712191  0.42438641  1.0
  P  P5613  1  0.96908025  0.64212191  0.42438641  1.0
  P  P5614  1  0.96908025  0.76712191  0.42438641  1.0
  P  P5615  1  0.96908025  0.89212191  0.42438641  1.0
  P  P5616  1  0.09441181  0.07962191  0.38513740  1.0
  P  P5617  1  0.09441181  0.20462191  0.38513740  1.0
  P  P5618  1  0.09441181  0.32962191  0.38513740  1.0
  P  P5619  1  0.09441181  0.45462191  0.38513740  1.0
  P  P5620  1  0.09441181  0.57962191  0.38513740  1.0
  P  P5621  1  0.09441181  0.70462191  0.38513740  1.0
  P  P5622  1  0.09441181  0.82962191  0.38513740  1.0
  P  P5623  1  0.09441181  0.95462191  0.38513740  1.0
  P  P5624  1  0.20552293  0.07962191  0.38513740  1.0
  P  P5625  1  0.20552293  0.20462191  0.38513740  1.0
  P  P5626  1  0.20552293  0.32962191  0.38513740  1.0
  P  P5627  1  0.20552293  0.45462191  0.38513740  1.0
  P  P5628  1  0.20552293  0.57962191  0.38513740  1.0
  P  P5629  1  0.20552293  0.70462191  0.38513740  1.0
  P  P5630  1  0.20552293  0.82962191  0.38513740  1.0
  P  P5631  1  0.20552293  0.95462191  0.38513740  1.0
  P  P5632  1  0.31663404  0.07962191  0.38513740  1.0
  P  P5633  1  0.31663404  0.20462191  0.38513740  1.0
  P  P5634  1  0.31663404  0.32962191  0.38513740  1.0
  P  P5635  1  0.31663404  0.45462191  0.38513740  1.0
  P  P5636  1  0.31663404  0.57962191  0.38513740  1.0
  P  P5637  1  0.31663404  0.70462191  0.38513740  1.0
  P  P5638  1  0.31663404  0.82962191  0.38513740  1.0
  P  P5639  1  0.31663404  0.95462191  0.38513740  1.0
  P  P5640  1  0.42774515  0.07962191  0.38513740  1.0
  P  P5641  1  0.42774515  0.20462191  0.38513740  1.0
  P  P5642  1  0.42774515  0.32962191  0.38513740  1.0
  P  P5643  1  0.42774515  0.45462191  0.38513740  1.0
  P  P5644  1  0.42774515  0.57962191  0.38513740  1.0
  P  P5645  1  0.42774515  0.70462191  0.38513740  1.0
  P  P5646  1  0.42774515  0.82962191  0.38513740  1.0
  P  P5647  1  0.42774515  0.95462191  0.38513740  1.0
  P  P5648  1  0.53885626  0.07962191  0.38513740  1.0
  P  P5649  1  0.53885626  0.20462191  0.38513740  1.0
  P  P5650  1  0.53885626  0.32962191  0.38513740  1.0
  P  P5651  1  0.53885626  0.45462191  0.38513740  1.0
  P  P5652  1  0.53885626  0.57962191  0.38513740  1.0
  P  P5653  1  0.53885626  0.70462191  0.38513740  1.0
  P  P5654  1  0.53885626  0.82962191  0.38513740  1.0
  P  P5655  1  0.53885626  0.95462191  0.38513740  1.0
  P  P5656  1  0.64996737  0.07962191  0.38513740  1.0
  P  P5657  1  0.64996737  0.20462191  0.38513740  1.0
  P  P5658  1  0.64996737  0.32962191  0.38513740  1.0
  P  P5659  1  0.64996737  0.45462191  0.38513740  1.0
  P  P5660  1  0.64996737  0.57962191  0.38513740  1.0
  P  P5661  1  0.64996737  0.70462191  0.38513740  1.0
  P  P5662  1  0.64996737  0.82962191  0.38513740  1.0
  P  P5663  1  0.64996737  0.95462191  0.38513740  1.0
  P  P5664  1  0.76107848  0.07962191  0.38513740  1.0
  P  P5665  1  0.76107848  0.20462191  0.38513740  1.0
  P  P5666  1  0.76107848  0.32962191  0.38513740  1.0
  P  P5667  1  0.76107848  0.45462191  0.38513740  1.0
  P  P5668  1  0.76107848  0.57962191  0.38513740  1.0
  P  P5669  1  0.76107848  0.70462191  0.38513740  1.0
  P  P5670  1  0.76107848  0.82962191  0.38513740  1.0
  P  P5671  1  0.76107848  0.95462191  0.38513740  1.0
  P  P5672  1  0.87218959  0.07962191  0.38513740  1.0
  P  P5673  1  0.87218959  0.20462191  0.38513740  1.0
  P  P5674  1  0.87218959  0.32962191  0.38513740  1.0
  P  P5675  1  0.87218959  0.45462191  0.38513740  1.0
  P  P5676  1  0.87218959  0.57962191  0.38513740  1.0
  P  P5677  1  0.87218959  0.70462191  0.38513740  1.0
  P  P5678  1  0.87218959  0.82962191  0.38513740  1.0
  P  P5679  1  0.87218959  0.95462191  0.38513740  1.0
  P  P5680  1  0.98330070  0.07962191  0.38513740  1.0
  P  P5681  1  0.98330070  0.20462191  0.38513740  1.0
  P  P5682  1  0.98330070  0.32962191  0.38513740  1.0
  P  P5683  1  0.98330070  0.45462191  0.38513740  1.0
  P  P5684  1  0.98330070  0.57962191  0.38513740  1.0
  P  P5685  1  0.98330070  0.70462191  0.38513740  1.0
  P  P5686  1  0.98330070  0.82962191  0.38513740  1.0
  P  P5687  1  0.98330070  0.95462191  0.38513740  1.0
  P  P5688  1  0.03621076  0.07962191  0.48037550  1.0
  P  P5689  1  0.03621076  0.20462191  0.48037550  1.0
  P  P5690  1  0.03621076  0.32962191  0.48037550  1.0
  P  P5691  1  0.03621076  0.45462191  0.48037550  1.0
  P  P5692  1  0.03621076  0.57962191  0.48037550  1.0
  P  P5693  1  0.03621076  0.70462191  0.48037550  1.0
  P  P5694  1  0.03621076  0.82962191  0.48037550  1.0
  P  P5695  1  0.03621076  0.95462191  0.48037550  1.0
  P  P5696  1  0.14732187  0.07962191  0.48037550  1.0
  P  P5697  1  0.14732187  0.20462191  0.48037550  1.0
  P  P5698  1  0.14732187  0.32962191  0.48037550  1.0
  P  P5699  1  0.14732187  0.45462191  0.48037550  1.0
  P  P5700  1  0.14732187  0.57962191  0.48037550  1.0
  P  P5701  1  0.14732187  0.70462191  0.48037550  1.0
  P  P5702  1  0.14732187  0.82962191  0.48037550  1.0
  P  P5703  1  0.14732187  0.95462191  0.48037550  1.0
  P  P5704  1  0.25843298  0.07962191  0.48037550  1.0
  P  P5705  1  0.25843298  0.20462191  0.48037550  1.0
  P  P5706  1  0.25843298  0.32962191  0.48037550  1.0
  P  P5707  1  0.25843298  0.45462191  0.48037550  1.0
  P  P5708  1  0.25843298  0.57962191  0.48037550  1.0
  P  P5709  1  0.25843298  0.70462191  0.48037550  1.0
  P  P5710  1  0.25843298  0.82962191  0.48037550  1.0
  P  P5711  1  0.25843298  0.95462191  0.48037550  1.0
  P  P5712  1  0.36954409  0.07962191  0.48037550  1.0
  P  P5713  1  0.36954409  0.20462191  0.48037550  1.0
  P  P5714  1  0.36954409  0.32962191  0.48037550  1.0
  P  P5715  1  0.36954409  0.45462191  0.48037550  1.0
  P  P5716  1  0.36954409  0.57962191  0.48037550  1.0
  P  P5717  1  0.36954409  0.70462191  0.48037550  1.0
  P  P5718  1  0.36954409  0.82962191  0.48037550  1.0
  P  P5719  1  0.36954409  0.95462191  0.48037550  1.0
  P  P5720  1  0.48065520  0.07962191  0.48037550  1.0
  P  P5721  1  0.48065520  0.20462191  0.48037550  1.0
  P  P5722  1  0.48065520  0.32962191  0.48037550  1.0
  P  P5723  1  0.48065520  0.45462191  0.48037550  1.0
  P  P5724  1  0.48065520  0.57962191  0.48037550  1.0
  P  P5725  1  0.48065520  0.70462191  0.48037550  1.0
  P  P5726  1  0.48065520  0.82962191  0.48037550  1.0
  P  P5727  1  0.48065520  0.95462191  0.48037550  1.0
  P  P5728  1  0.59176631  0.07962191  0.48037550  1.0
  P  P5729  1  0.59176631  0.20462191  0.48037550  1.0
  P  P5730  1  0.59176631  0.32962191  0.48037550  1.0
  P  P5731  1  0.59176631  0.45462191  0.48037550  1.0
  P  P5732  1  0.59176631  0.57962191  0.48037550  1.0
  P  P5733  1  0.59176631  0.70462191  0.48037550  1.0
  P  P5734  1  0.59176631  0.82962191  0.48037550  1.0
  P  P5735  1  0.59176631  0.95462191  0.48037550  1.0
  P  P5736  1  0.70287742  0.07962191  0.48037550  1.0
  P  P5737  1  0.70287742  0.20462191  0.48037550  1.0
  P  P5738  1  0.70287742  0.32962191  0.48037550  1.0
  P  P5739  1  0.70287742  0.45462191  0.48037550  1.0
  P  P5740  1  0.70287742  0.57962191  0.48037550  1.0
  P  P5741  1  0.70287742  0.70462191  0.48037550  1.0
  P  P5742  1  0.70287742  0.82962191  0.48037550  1.0
  P  P5743  1  0.70287742  0.95462191  0.48037550  1.0
  P  P5744  1  0.81398853  0.07962191  0.48037550  1.0
  P  P5745  1  0.81398853  0.20462191  0.48037550  1.0
  P  P5746  1  0.81398853  0.32962191  0.48037550  1.0
  P  P5747  1  0.81398853  0.45462191  0.48037550  1.0
  P  P5748  1  0.81398853  0.57962191  0.48037550  1.0
  P  P5749  1  0.81398853  0.70462191  0.48037550  1.0
  P  P5750  1  0.81398853  0.82962191  0.48037550  1.0
  P  P5751  1  0.81398853  0.95462191  0.48037550  1.0
  P  P5752  1  0.92509965  0.07962191  0.48037550  1.0
  P  P5753  1  0.92509965  0.20462191  0.48037550  1.0
  P  P5754  1  0.92509965  0.32962191  0.48037550  1.0
  P  P5755  1  0.92509965  0.45462191  0.48037550  1.0
  P  P5756  1  0.92509965  0.57962191  0.48037550  1.0
  P  P5757  1  0.92509965  0.70462191  0.48037550  1.0
  P  P5758  1  0.92509965  0.82962191  0.48037550  1.0
  P  P5759  1  0.92509965  0.95462191  0.48037550  1.0
  P  P5760  1  0.00975573  0.07962191  0.43275645  1.0
  P  P5761  1  0.00975573  0.20462191  0.43275645  1.0
  P  P5762  1  0.00975573  0.32962191  0.43275645  1.0
  P  P5763  1  0.00975573  0.45462191  0.43275645  1.0
  P  P5764  1  0.00975573  0.57962191  0.43275645  1.0
  P  P5765  1  0.00975573  0.70462191  0.43275645  1.0
  P  P5766  1  0.00975573  0.82962191  0.43275645  1.0
  P  P5767  1  0.00975573  0.95462191  0.43275645  1.0
  P  P5768  1  0.12086684  0.07962191  0.43275645  1.0
  P  P5769  1  0.12086684  0.20462191  0.43275645  1.0
  P  P5770  1  0.12086684  0.32962191  0.43275645  1.0
  P  P5771  1  0.12086684  0.45462191  0.43275645  1.0
  P  P5772  1  0.12086684  0.57962191  0.43275645  1.0
  P  P5773  1  0.12086684  0.70462191  0.43275645  1.0
  P  P5774  1  0.12086684  0.82962191  0.43275645  1.0
  P  P5775  1  0.12086684  0.95462191  0.43275645  1.0
  P  P5776  1  0.23197795  0.07962191  0.43275645  1.0
  P  P5777  1  0.23197795  0.20462191  0.43275645  1.0
  P  P5778  1  0.23197795  0.32962191  0.43275645  1.0
  P  P5779  1  0.23197795  0.45462191  0.43275645  1.0
  P  P5780  1  0.23197795  0.57962191  0.43275645  1.0
  P  P5781  1  0.23197795  0.70462191  0.43275645  1.0
  P  P5782  1  0.23197795  0.82962191  0.43275645  1.0
  P  P5783  1  0.23197795  0.95462191  0.43275645  1.0
  P  P5784  1  0.34308906  0.07962191  0.43275645  1.0
  P  P5785  1  0.34308906  0.20462191  0.43275645  1.0
  P  P5786  1  0.34308906  0.32962191  0.43275645  1.0
  P  P5787  1  0.34308906  0.45462191  0.43275645  1.0
  P  P5788  1  0.34308906  0.57962191  0.43275645  1.0
  P  P5789  1  0.34308906  0.70462191  0.43275645  1.0
  P  P5790  1  0.34308906  0.82962191  0.43275645  1.0
  P  P5791  1  0.34308906  0.95462191  0.43275645  1.0
  P  P5792  1  0.45420017  0.07962191  0.43275645  1.0
  P  P5793  1  0.45420017  0.20462191  0.43275645  1.0
  P  P5794  1  0.45420017  0.32962191  0.43275645  1.0
  P  P5795  1  0.45420017  0.45462191  0.43275645  1.0
  P  P5796  1  0.45420017  0.57962191  0.43275645  1.0
  P  P5797  1  0.45420017  0.70462191  0.43275645  1.0
  P  P5798  1  0.45420017  0.82962191  0.43275645  1.0
  P  P5799  1  0.45420017  0.95462191  0.43275645  1.0
  P  P5800  1  0.56531129  0.07962191  0.43275645  1.0
  P  P5801  1  0.56531129  0.20462191  0.43275645  1.0
  P  P5802  1  0.56531129  0.32962191  0.43275645  1.0
  P  P5803  1  0.56531129  0.45462191  0.43275645  1.0
  P  P5804  1  0.56531129  0.57962191  0.43275645  1.0
  P  P5805  1  0.56531129  0.70462191  0.43275645  1.0
  P  P5806  1  0.56531129  0.82962191  0.43275645  1.0
  P  P5807  1  0.56531129  0.95462191  0.43275645  1.0
  P  P5808  1  0.67642240  0.07962191  0.43275645  1.0
  P  P5809  1  0.67642240  0.20462191  0.43275645  1.0
  P  P5810  1  0.67642240  0.32962191  0.43275645  1.0
  P  P5811  1  0.67642240  0.45462191  0.43275645  1.0
  P  P5812  1  0.67642240  0.57962191  0.43275645  1.0
  P  P5813  1  0.67642240  0.70462191  0.43275645  1.0
  P  P5814  1  0.67642240  0.82962191  0.43275645  1.0
  P  P5815  1  0.67642240  0.95462191  0.43275645  1.0
  P  P5816  1  0.78753351  0.07962191  0.43275645  1.0
  P  P5817  1  0.78753351  0.20462191  0.43275645  1.0
  P  P5818  1  0.78753351  0.32962191  0.43275645  1.0
  P  P5819  1  0.78753351  0.45462191  0.43275645  1.0
  P  P5820  1  0.78753351  0.57962191  0.43275645  1.0
  P  P5821  1  0.78753351  0.70462191  0.43275645  1.0
  P  P5822  1  0.78753351  0.82962191  0.43275645  1.0
  P  P5823  1  0.78753351  0.95462191  0.43275645  1.0
  P  P5824  1  0.89864462  0.07962191  0.43275645  1.0
  P  P5825  1  0.89864462  0.20462191  0.43275645  1.0
  P  P5826  1  0.89864462  0.32962191  0.43275645  1.0
  P  P5827  1  0.89864462  0.45462191  0.43275645  1.0
  P  P5828  1  0.89864462  0.57962191  0.43275645  1.0
  P  P5829  1  0.89864462  0.70462191  0.43275645  1.0
  P  P5830  1  0.89864462  0.82962191  0.43275645  1.0
  P  P5831  1  0.89864462  0.95462191  0.43275645  1.0
  P  P5832  1  0.01140829  0.04537809  0.40057688  1.0
  P  P5833  1  0.01140829  0.17037809  0.40057688  1.0
  P  P5834  1  0.01140829  0.29537809  0.40057688  1.0
  P  P5835  1  0.01140829  0.42037809  0.40057688  1.0
  P  P5836  1  0.01140829  0.54537809  0.40057688  1.0
  P  P5837  1  0.01140829  0.67037809  0.40057688  1.0
  P  P5838  1  0.01140829  0.79537809  0.40057688  1.0
  P  P5839  1  0.01140829  0.92037809  0.40057688  1.0
  P  P5840  1  0.12251940  0.04537809  0.40057688  1.0
  P  P5841  1  0.12251940  0.17037809  0.40057688  1.0
  P  P5842  1  0.12251940  0.29537809  0.40057688  1.0
  P  P5843  1  0.12251940  0.42037809  0.40057688  1.0
  P  P5844  1  0.12251940  0.54537809  0.40057688  1.0
  P  P5845  1  0.12251940  0.67037809  0.40057688  1.0
  P  P5846  1  0.12251940  0.79537809  0.40057688  1.0
  P  P5847  1  0.12251940  0.92037809  0.40057688  1.0
  P  P5848  1  0.23363051  0.04537809  0.40057688  1.0
  P  P5849  1  0.23363051  0.17037809  0.40057688  1.0
  P  P5850  1  0.23363051  0.29537809  0.40057688  1.0
  P  P5851  1  0.23363051  0.42037809  0.40057688  1.0
  P  P5852  1  0.23363051  0.54537809  0.40057688  1.0
  P  P5853  1  0.23363051  0.67037809  0.40057688  1.0
  P  P5854  1  0.23363051  0.79537809  0.40057688  1.0
  P  P5855  1  0.23363051  0.92037809  0.40057688  1.0
  P  P5856  1  0.34474162  0.04537809  0.40057688  1.0
  P  P5857  1  0.34474162  0.17037809  0.40057688  1.0
  P  P5858  1  0.34474162  0.29537809  0.40057688  1.0
  P  P5859  1  0.34474162  0.42037809  0.40057688  1.0
  P  P5860  1  0.34474162  0.54537809  0.40057688  1.0
  P  P5861  1  0.34474162  0.67037809  0.40057688  1.0
  P  P5862  1  0.34474162  0.79537809  0.40057688  1.0
  P  P5863  1  0.34474162  0.92037809  0.40057688  1.0
  P  P5864  1  0.45585274  0.04537809  0.40057688  1.0
  P  P5865  1  0.45585274  0.17037809  0.40057688  1.0
  P  P5866  1  0.45585274  0.29537809  0.40057688  1.0
  P  P5867  1  0.45585274  0.42037809  0.40057688  1.0
  P  P5868  1  0.45585274  0.54537809  0.40057688  1.0
  P  P5869  1  0.45585274  0.67037809  0.40057688  1.0
  P  P5870  1  0.45585274  0.79537809  0.40057688  1.0
  P  P5871  1  0.45585274  0.92037809  0.40057688  1.0
  P  P5872  1  0.56696385  0.04537809  0.40057688  1.0
  P  P5873  1  0.56696385  0.17037809  0.40057688  1.0
  P  P5874  1  0.56696385  0.29537809  0.40057688  1.0
  P  P5875  1  0.56696385  0.42037809  0.40057688  1.0
  P  P5876  1  0.56696385  0.54537809  0.40057688  1.0
  P  P5877  1  0.56696385  0.67037809  0.40057688  1.0
  P  P5878  1  0.56696385  0.79537809  0.40057688  1.0
  P  P5879  1  0.56696385  0.92037809  0.40057688  1.0
  P  P5880  1  0.67807496  0.04537809  0.40057688  1.0
  P  P5881  1  0.67807496  0.17037809  0.40057688  1.0
  P  P5882  1  0.67807496  0.29537809  0.40057688  1.0
  P  P5883  1  0.67807496  0.42037809  0.40057688  1.0
  P  P5884  1  0.67807496  0.54537809  0.40057688  1.0
  P  P5885  1  0.67807496  0.67037809  0.40057688  1.0
  P  P5886  1  0.67807496  0.79537809  0.40057688  1.0
  P  P5887  1  0.67807496  0.92037809  0.40057688  1.0
  P  P5888  1  0.78918607  0.04537809  0.40057688  1.0
  P  P5889  1  0.78918607  0.17037809  0.40057688  1.0
  P  P5890  1  0.78918607  0.29537809  0.40057688  1.0
  P  P5891  1  0.78918607  0.42037809  0.40057688  1.0
  P  P5892  1  0.78918607  0.54537809  0.40057688  1.0
  P  P5893  1  0.78918607  0.67037809  0.40057688  1.0
  P  P5894  1  0.78918607  0.79537809  0.40057688  1.0
  P  P5895  1  0.78918607  0.92037809  0.40057688  1.0
  P  P5896  1  0.90029718  0.04537809  0.40057688  1.0
  P  P5897  1  0.90029718  0.17037809  0.40057688  1.0
  P  P5898  1  0.90029718  0.29537809  0.40057688  1.0
  P  P5899  1  0.90029718  0.42037809  0.40057688  1.0
  P  P5900  1  0.90029718  0.54537809  0.40057688  1.0
  P  P5901  1  0.90029718  0.67037809  0.40057688  1.0
  P  P5902  1  0.90029718  0.79537809  0.40057688  1.0
  P  P5903  1  0.90029718  0.92037809  0.40057688  1.0
  P  P5904  1  0.06431834  0.04537809  0.49581498  1.0
  P  P5905  1  0.06431834  0.17037809  0.49581498  1.0
  P  P5906  1  0.06431834  0.29537809  0.49581498  1.0
  P  P5907  1  0.06431834  0.42037809  0.49581498  1.0
  P  P5908  1  0.06431834  0.54537809  0.49581498  1.0
  P  P5909  1  0.06431834  0.67037809  0.49581498  1.0
  P  P5910  1  0.06431834  0.79537809  0.49581498  1.0
  P  P5911  1  0.06431834  0.92037809  0.49581498  1.0
  P  P5912  1  0.17542946  0.04537809  0.49581498  1.0
  P  P5913  1  0.17542946  0.17037809  0.49581498  1.0
  P  P5914  1  0.17542946  0.29537809  0.49581498  1.0
  P  P5915  1  0.17542946  0.42037809  0.49581498  1.0
  P  P5916  1  0.17542946  0.54537809  0.49581498  1.0
  P  P5917  1  0.17542946  0.67037809  0.49581498  1.0
  P  P5918  1  0.17542946  0.79537809  0.49581498  1.0
  P  P5919  1  0.17542946  0.92037809  0.49581498  1.0
  P  P5920  1  0.28654057  0.04537809  0.49581498  1.0
  P  P5921  1  0.28654057  0.17037809  0.49581498  1.0
  P  P5922  1  0.28654057  0.29537809  0.49581498  1.0
  P  P5923  1  0.28654057  0.42037809  0.49581498  1.0
  P  P5924  1  0.28654057  0.54537809  0.49581498  1.0
  P  P5925  1  0.28654057  0.67037809  0.49581498  1.0
  P  P5926  1  0.28654057  0.79537809  0.49581498  1.0
  P  P5927  1  0.28654057  0.92037809  0.49581498  1.0
  P  P5928  1  0.39765168  0.04537809  0.49581498  1.0
  P  P5929  1  0.39765168  0.17037809  0.49581498  1.0
  P  P5930  1  0.39765168  0.29537809  0.49581498  1.0
  P  P5931  1  0.39765168  0.42037809  0.49581498  1.0
  P  P5932  1  0.39765168  0.54537809  0.49581498  1.0
  P  P5933  1  0.39765168  0.67037809  0.49581498  1.0
  P  P5934  1  0.39765168  0.79537809  0.49581498  1.0
  P  P5935  1  0.39765168  0.92037809  0.49581498  1.0
  P  P5936  1  0.50876279  0.04537809  0.49581498  1.0
  P  P5937  1  0.50876279  0.17037809  0.49581498  1.0
  P  P5938  1  0.50876279  0.29537809  0.49581498  1.0
  P  P5939  1  0.50876279  0.42037809  0.49581498  1.0
  P  P5940  1  0.50876279  0.54537809  0.49581498  1.0
  P  P5941  1  0.50876279  0.67037809  0.49581498  1.0
  P  P5942  1  0.50876279  0.79537809  0.49581498  1.0
  P  P5943  1  0.50876279  0.92037809  0.49581498  1.0
  P  P5944  1  0.61987390  0.04537809  0.49581498  1.0
  P  P5945  1  0.61987390  0.17037809  0.49581498  1.0
  P  P5946  1  0.61987390  0.29537809  0.49581498  1.0
  P  P5947  1  0.61987390  0.42037809  0.49581498  1.0
  P  P5948  1  0.61987390  0.54537809  0.49581498  1.0
  P  P5949  1  0.61987390  0.67037809  0.49581498  1.0
  P  P5950  1  0.61987390  0.79537809  0.49581498  1.0
  P  P5951  1  0.61987390  0.92037809  0.49581498  1.0
  P  P5952  1  0.73098501  0.04537809  0.49581498  1.0
  P  P5953  1  0.73098501  0.17037809  0.49581498  1.0
  P  P5954  1  0.73098501  0.29537809  0.49581498  1.0
  P  P5955  1  0.73098501  0.42037809  0.49581498  1.0
  P  P5956  1  0.73098501  0.54537809  0.49581498  1.0
  P  P5957  1  0.73098501  0.67037809  0.49581498  1.0
  P  P5958  1  0.73098501  0.79537809  0.49581498  1.0
  P  P5959  1  0.73098501  0.92037809  0.49581498  1.0
  P  P5960  1  0.84209612  0.04537809  0.49581498  1.0
  P  P5961  1  0.84209612  0.17037809  0.49581498  1.0
  P  P5962  1  0.84209612  0.29537809  0.49581498  1.0
  P  P5963  1  0.84209612  0.42037809  0.49581498  1.0
  P  P5964  1  0.84209612  0.54537809  0.49581498  1.0
  P  P5965  1  0.84209612  0.67037809  0.49581498  1.0
  P  P5966  1  0.84209612  0.79537809  0.49581498  1.0
  P  P5967  1  0.84209612  0.92037809  0.49581498  1.0
  P  P5968  1  0.95320723  0.04537809  0.49581498  1.0
  P  P5969  1  0.95320723  0.17037809  0.49581498  1.0
  P  P5970  1  0.95320723  0.29537809  0.49581498  1.0
  P  P5971  1  0.95320723  0.42037809  0.49581498  1.0
  P  P5972  1  0.95320723  0.54537809  0.49581498  1.0
  P  P5973  1  0.95320723  0.67037809  0.49581498  1.0
  P  P5974  1  0.95320723  0.79537809  0.49581498  1.0
  P  P5975  1  0.95320723  0.92037809  0.49581498  1.0
  P  P5976  1  0.03786332  0.04537809  0.44819593  1.0
  P  P5977  1  0.03786332  0.17037809  0.44819593  1.0
  P  P5978  1  0.03786332  0.29537809  0.44819593  1.0
  P  P5979  1  0.03786332  0.42037809  0.44819593  1.0
  P  P5980  1  0.03786332  0.54537809  0.44819593  1.0
  P  P5981  1  0.03786332  0.67037809  0.44819593  1.0
  P  P5982  1  0.03786332  0.79537809  0.44819593  1.0
  P  P5983  1  0.03786332  0.92037809  0.44819593  1.0
  P  P5984  1  0.14897443  0.04537809  0.44819593  1.0
  P  P5985  1  0.14897443  0.17037809  0.44819593  1.0
  P  P5986  1  0.14897443  0.29537809  0.44819593  1.0
  P  P5987  1  0.14897443  0.42037809  0.44819593  1.0
  P  P5988  1  0.14897443  0.54537809  0.44819593  1.0
  P  P5989  1  0.14897443  0.67037809  0.44819593  1.0
  P  P5990  1  0.14897443  0.79537809  0.44819593  1.0
  P  P5991  1  0.14897443  0.92037809  0.44819593  1.0
  P  P5992  1  0.26008554  0.04537809  0.44819593  1.0
  P  P5993  1  0.26008554  0.17037809  0.44819593  1.0
  P  P5994  1  0.26008554  0.29537809  0.44819593  1.0
  P  P5995  1  0.26008554  0.42037809  0.44819593  1.0
  P  P5996  1  0.26008554  0.54537809  0.44819593  1.0
  P  P5997  1  0.26008554  0.67037809  0.44819593  1.0
  P  P5998  1  0.26008554  0.79537809  0.44819593  1.0
  P  P5999  1  0.26008554  0.92037809  0.44819593  1.0
  P  P6000  1  0.37119665  0.04537809  0.44819593  1.0
  P  P6001  1  0.37119665  0.17037809  0.44819593  1.0
  P  P6002  1  0.37119665  0.29537809  0.44819593  1.0
  P  P6003  1  0.37119665  0.42037809  0.44819593  1.0
  P  P6004  1  0.37119665  0.54537809  0.44819593  1.0
  P  P6005  1  0.37119665  0.67037809  0.44819593  1.0
  P  P6006  1  0.37119665  0.79537809  0.44819593  1.0
  P  P6007  1  0.37119665  0.92037809  0.44819593  1.0
  P  P6008  1  0.48230776  0.04537809  0.44819593  1.0
  P  P6009  1  0.48230776  0.17037809  0.44819593  1.0
  P  P6010  1  0.48230776  0.29537809  0.44819593  1.0
  P  P6011  1  0.48230776  0.42037809  0.44819593  1.0
  P  P6012  1  0.48230776  0.54537809  0.44819593  1.0
  P  P6013  1  0.48230776  0.67037809  0.44819593  1.0
  P  P6014  1  0.48230776  0.79537809  0.44819593  1.0
  P  P6015  1  0.48230776  0.92037809  0.44819593  1.0
  P  P6016  1  0.59341887  0.04537809  0.44819593  1.0
  P  P6017  1  0.59341887  0.17037809  0.44819593  1.0
  P  P6018  1  0.59341887  0.29537809  0.44819593  1.0
  P  P6019  1  0.59341887  0.42037809  0.44819593  1.0
  P  P6020  1  0.59341887  0.54537809  0.44819593  1.0
  P  P6021  1  0.59341887  0.67037809  0.44819593  1.0
  P  P6022  1  0.59341887  0.79537809  0.44819593  1.0
  P  P6023  1  0.59341887  0.92037809  0.44819593  1.0
  P  P6024  1  0.70452998  0.04537809  0.44819593  1.0
  P  P6025  1  0.70452998  0.17037809  0.44819593  1.0
  P  P6026  1  0.70452998  0.29537809  0.44819593  1.0
  P  P6027  1  0.70452998  0.42037809  0.44819593  1.0
  P  P6028  1  0.70452998  0.54537809  0.44819593  1.0
  P  P6029  1  0.70452998  0.67037809  0.44819593  1.0
  P  P6030  1  0.70452998  0.79537809  0.44819593  1.0
  P  P6031  1  0.70452998  0.92037809  0.44819593  1.0
  P  P6032  1  0.81564110  0.04537809  0.44819593  1.0
  P  P6033  1  0.81564110  0.17037809  0.44819593  1.0
  P  P6034  1  0.81564110  0.29537809  0.44819593  1.0
  P  P6035  1  0.81564110  0.42037809  0.44819593  1.0
  P  P6036  1  0.81564110  0.54537809  0.44819593  1.0
  P  P6037  1  0.81564110  0.67037809  0.44819593  1.0
  P  P6038  1  0.81564110  0.79537809  0.44819593  1.0
  P  P6039  1  0.81564110  0.92037809  0.44819593  1.0
  P  P6040  1  0.92675221  0.04537809  0.44819593  1.0
  P  P6041  1  0.92675221  0.17037809  0.44819593  1.0
  P  P6042  1  0.92675221  0.29537809  0.44819593  1.0
  P  P6043  1  0.92675221  0.42037809  0.44819593  1.0
  P  P6044  1  0.92675221  0.54537809  0.44819593  1.0
  P  P6045  1  0.92675221  0.67037809  0.44819593  1.0
  P  P6046  1  0.92675221  0.79537809  0.44819593  1.0
  P  P6047  1  0.92675221  0.92037809  0.44819593  1.0
  P  P6048  1  0.01415026  0.12004423  0.39903453  1.0
  P  P6049  1  0.01415026  0.24504423  0.39903453  1.0
  P  P6050  1  0.01415026  0.37004423  0.39903453  1.0
  P  P6051  1  0.01415026  0.49504423  0.39903453  1.0
  P  P6052  1  0.01415026  0.62004423  0.39903453  1.0
  P  P6053  1  0.01415026  0.74504423  0.39903453  1.0
  P  P6054  1  0.01415026  0.87004423  0.39903453  1.0
  P  P6055  1  0.01415026  0.99504423  0.39903453  1.0
  P  P6056  1  0.12526137  0.12004423  0.39903453  1.0
  P  P6057  1  0.12526137  0.24504423  0.39903453  1.0
  P  P6058  1  0.12526137  0.37004423  0.39903453  1.0
  P  P6059  1  0.12526137  0.49504423  0.39903453  1.0
  P  P6060  1  0.12526137  0.62004423  0.39903453  1.0
  P  P6061  1  0.12526137  0.74504423  0.39903453  1.0
  P  P6062  1  0.12526137  0.87004423  0.39903453  1.0
  P  P6063  1  0.12526137  0.99504423  0.39903453  1.0
  P  P6064  1  0.23637248  0.12004423  0.39903453  1.0
  P  P6065  1  0.23637248  0.24504423  0.39903453  1.0
  P  P6066  1  0.23637248  0.37004423  0.39903453  1.0
  P  P6067  1  0.23637248  0.49504423  0.39903453  1.0
  P  P6068  1  0.23637248  0.62004423  0.39903453  1.0
  P  P6069  1  0.23637248  0.74504423  0.39903453  1.0
  P  P6070  1  0.23637248  0.87004423  0.39903453  1.0
  P  P6071  1  0.23637248  0.99504423  0.39903453  1.0
  P  P6072  1  0.34748359  0.12004423  0.39903453  1.0
  P  P6073  1  0.34748359  0.24504423  0.39903453  1.0
  P  P6074  1  0.34748359  0.37004423  0.39903453  1.0
  P  P6075  1  0.34748359  0.49504423  0.39903453  1.0
  P  P6076  1  0.34748359  0.62004423  0.39903453  1.0
  P  P6077  1  0.34748359  0.74504423  0.39903453  1.0
  P  P6078  1  0.34748359  0.87004423  0.39903453  1.0
  P  P6079  1  0.34748359  0.99504423  0.39903453  1.0
  P  P6080  1  0.45859470  0.12004423  0.39903453  1.0
  P  P6081  1  0.45859470  0.24504423  0.39903453  1.0
  P  P6082  1  0.45859470  0.37004423  0.39903453  1.0
  P  P6083  1  0.45859470  0.49504423  0.39903453  1.0
  P  P6084  1  0.45859470  0.62004423  0.39903453  1.0
  P  P6085  1  0.45859470  0.74504423  0.39903453  1.0
  P  P6086  1  0.45859470  0.87004423  0.39903453  1.0
  P  P6087  1  0.45859470  0.99504423  0.39903453  1.0
  P  P6088  1  0.56970581  0.12004423  0.39903453  1.0
  P  P6089  1  0.56970581  0.24504423  0.39903453  1.0
  P  P6090  1  0.56970581  0.37004423  0.39903453  1.0
  P  P6091  1  0.56970581  0.49504423  0.39903453  1.0
  P  P6092  1  0.56970581  0.62004423  0.39903453  1.0
  P  P6093  1  0.56970581  0.74504423  0.39903453  1.0
  P  P6094  1  0.56970581  0.87004423  0.39903453  1.0
  P  P6095  1  0.56970581  0.99504423  0.39903453  1.0
  P  P6096  1  0.68081692  0.12004423  0.39903453  1.0
  P  P6097  1  0.68081692  0.24504423  0.39903453  1.0
  P  P6098  1  0.68081692  0.37004423  0.39903453  1.0
  P  P6099  1  0.68081692  0.49504423  0.39903453  1.0
  P  P6100  1  0.68081692  0.62004423  0.39903453  1.0
  P  P6101  1  0.68081692  0.74504423  0.39903453  1.0
  P  P6102  1  0.68081692  0.87004423  0.39903453  1.0
  P  P6103  1  0.68081692  0.99504423  0.39903453  1.0
  P  P6104  1  0.79192803  0.12004423  0.39903453  1.0
  P  P6105  1  0.79192803  0.24504423  0.39903453  1.0
  P  P6106  1  0.79192803  0.37004423  0.39903453  1.0
  P  P6107  1  0.79192803  0.49504423  0.39903453  1.0
  P  P6108  1  0.79192803  0.62004423  0.39903453  1.0
  P  P6109  1  0.79192803  0.74504423  0.39903453  1.0
  P  P6110  1  0.79192803  0.87004423  0.39903453  1.0
  P  P6111  1  0.79192803  0.99504423  0.39903453  1.0
  P  P6112  1  0.90303914  0.12004423  0.39903453  1.0
  P  P6113  1  0.90303914  0.24504423  0.39903453  1.0
  P  P6114  1  0.90303914  0.37004423  0.39903453  1.0
  P  P6115  1  0.90303914  0.49504423  0.39903453  1.0
  P  P6116  1  0.90303914  0.62004423  0.39903453  1.0
  P  P6117  1  0.90303914  0.74504423  0.39903453  1.0
  P  P6118  1  0.90303914  0.87004423  0.39903453  1.0
  P  P6119  1  0.90303914  0.99504423  0.39903453  1.0
  P  P6120  1  0.06706031  0.12004423  0.49427262  1.0
  P  P6121  1  0.06706031  0.24504423  0.49427262  1.0
  P  P6122  1  0.06706031  0.37004423  0.49427262  1.0
  P  P6123  1  0.06706031  0.49504423  0.49427262  1.0
  P  P6124  1  0.06706031  0.62004423  0.49427262  1.0
  P  P6125  1  0.06706031  0.74504423  0.49427262  1.0
  P  P6126  1  0.06706031  0.87004423  0.49427262  1.0
  P  P6127  1  0.06706031  0.99504423  0.49427262  1.0
  P  P6128  1  0.17817142  0.12004423  0.49427262  1.0
  P  P6129  1  0.17817142  0.24504423  0.49427262  1.0
  P  P6130  1  0.17817142  0.37004423  0.49427262  1.0
  P  P6131  1  0.17817142  0.49504423  0.49427262  1.0
  P  P6132  1  0.17817142  0.62004423  0.49427262  1.0
  P  P6133  1  0.17817142  0.74504423  0.49427262  1.0
  P  P6134  1  0.17817142  0.87004423  0.49427262  1.0
  P  P6135  1  0.17817142  0.99504423  0.49427262  1.0
  P  P6136  1  0.28928253  0.12004423  0.49427262  1.0
  P  P6137  1  0.28928253  0.24504423  0.49427262  1.0
  P  P6138  1  0.28928253  0.37004423  0.49427262  1.0
  P  P6139  1  0.28928253  0.49504423  0.49427262  1.0
  P  P6140  1  0.28928253  0.62004423  0.49427262  1.0
  P  P6141  1  0.28928253  0.74504423  0.49427262  1.0
  P  P6142  1  0.28928253  0.87004423  0.49427262  1.0
  P  P6143  1  0.28928253  0.99504423  0.49427262  1.0
  P  P6144  1  0.40039364  0.12004423  0.49427262  1.0
  P  P6145  1  0.40039364  0.24504423  0.49427262  1.0
  P  P6146  1  0.40039364  0.37004423  0.49427262  1.0
  P  P6147  1  0.40039364  0.49504423  0.49427262  1.0
  P  P6148  1  0.40039364  0.62004423  0.49427262  1.0
  P  P6149  1  0.40039364  0.74504423  0.49427262  1.0
  P  P6150  1  0.40039364  0.87004423  0.49427262  1.0
  P  P6151  1  0.40039364  0.99504423  0.49427262  1.0
  P  P6152  1  0.51150475  0.12004423  0.49427262  1.0
  P  P6153  1  0.51150475  0.24504423  0.49427262  1.0
  P  P6154  1  0.51150475  0.37004423  0.49427262  1.0
  P  P6155  1  0.51150475  0.49504423  0.49427262  1.0
  P  P6156  1  0.51150475  0.62004423  0.49427262  1.0
  P  P6157  1  0.51150475  0.74504423  0.49427262  1.0
  P  P6158  1  0.51150475  0.87004423  0.49427262  1.0
  P  P6159  1  0.51150475  0.99504423  0.49427262  1.0
  P  P6160  1  0.62261586  0.12004423  0.49427262  1.0
  P  P6161  1  0.62261586  0.24504423  0.49427262  1.0
  P  P6162  1  0.62261586  0.37004423  0.49427262  1.0
  P  P6163  1  0.62261586  0.49504423  0.49427262  1.0
  P  P6164  1  0.62261586  0.62004423  0.49427262  1.0
  P  P6165  1  0.62261586  0.74504423  0.49427262  1.0
  P  P6166  1  0.62261586  0.87004423  0.49427262  1.0
  P  P6167  1  0.62261586  0.99504423  0.49427262  1.0
  P  P6168  1  0.73372697  0.12004423  0.49427262  1.0
  P  P6169  1  0.73372697  0.24504423  0.49427262  1.0
  P  P6170  1  0.73372697  0.37004423  0.49427262  1.0
  P  P6171  1  0.73372697  0.49504423  0.49427262  1.0
  P  P6172  1  0.73372697  0.62004423  0.49427262  1.0
  P  P6173  1  0.73372697  0.74504423  0.49427262  1.0
  P  P6174  1  0.73372697  0.87004423  0.49427262  1.0
  P  P6175  1  0.73372697  0.99504423  0.49427262  1.0
  P  P6176  1  0.84483809  0.12004423  0.49427262  1.0
  P  P6177  1  0.84483809  0.24504423  0.49427262  1.0
  P  P6178  1  0.84483809  0.37004423  0.49427262  1.0
  P  P6179  1  0.84483809  0.49504423  0.49427262  1.0
  P  P6180  1  0.84483809  0.62004423  0.49427262  1.0
  P  P6181  1  0.84483809  0.74504423  0.49427262  1.0
  P  P6182  1  0.84483809  0.87004423  0.49427262  1.0
  P  P6183  1  0.84483809  0.99504423  0.49427262  1.0
  P  P6184  1  0.95594920  0.12004423  0.49427262  1.0
  P  P6185  1  0.95594920  0.24504423  0.49427262  1.0
  P  P6186  1  0.95594920  0.37004423  0.49427262  1.0
  P  P6187  1  0.95594920  0.49504423  0.49427262  1.0
  P  P6188  1  0.95594920  0.62004423  0.49427262  1.0
  P  P6189  1  0.95594920  0.74504423  0.49427262  1.0
  P  P6190  1  0.95594920  0.87004423  0.49427262  1.0
  P  P6191  1  0.95594920  0.99504423  0.49427262  1.0
  P  P6192  1  0.04060528  0.12004423  0.44665358  1.0
  P  P6193  1  0.04060528  0.24504423  0.44665358  1.0
  P  P6194  1  0.04060528  0.37004423  0.44665358  1.0
  P  P6195  1  0.04060528  0.49504423  0.44665358  1.0
  P  P6196  1  0.04060528  0.62004423  0.44665358  1.0
  P  P6197  1  0.04060528  0.74504423  0.44665358  1.0
  P  P6198  1  0.04060528  0.87004423  0.44665358  1.0
  P  P6199  1  0.04060528  0.99504423  0.44665358  1.0
  P  P6200  1  0.15171639  0.12004423  0.44665358  1.0
  P  P6201  1  0.15171639  0.24504423  0.44665358  1.0
  P  P6202  1  0.15171639  0.37004423  0.44665358  1.0
  P  P6203  1  0.15171639  0.49504423  0.44665358  1.0
  P  P6204  1  0.15171639  0.62004423  0.44665358  1.0
  P  P6205  1  0.15171639  0.74504423  0.44665358  1.0
  P  P6206  1  0.15171639  0.87004423  0.44665358  1.0
  P  P6207  1  0.15171639  0.99504423  0.44665358  1.0
  P  P6208  1  0.26282750  0.12004423  0.44665358  1.0
  P  P6209  1  0.26282750  0.24504423  0.44665358  1.0
  P  P6210  1  0.26282750  0.37004423  0.44665358  1.0
  P  P6211  1  0.26282750  0.49504423  0.44665358  1.0
  P  P6212  1  0.26282750  0.62004423  0.44665358  1.0
  P  P6213  1  0.26282750  0.74504423  0.44665358  1.0
  P  P6214  1  0.26282750  0.87004423  0.44665358  1.0
  P  P6215  1  0.26282750  0.99504423  0.44665358  1.0
  P  P6216  1  0.37393862  0.12004423  0.44665358  1.0
  P  P6217  1  0.37393862  0.24504423  0.44665358  1.0
  P  P6218  1  0.37393862  0.37004423  0.44665358  1.0
  P  P6219  1  0.37393862  0.49504423  0.44665358  1.0
  P  P6220  1  0.37393862  0.62004423  0.44665358  1.0
  P  P6221  1  0.37393862  0.74504423  0.44665358  1.0
  P  P6222  1  0.37393862  0.87004423  0.44665358  1.0
  P  P6223  1  0.37393862  0.99504423  0.44665358  1.0
  P  P6224  1  0.48504973  0.12004423  0.44665358  1.0
  P  P6225  1  0.48504973  0.24504423  0.44665358  1.0
  P  P6226  1  0.48504973  0.37004423  0.44665358  1.0
  P  P6227  1  0.48504973  0.49504423  0.44665358  1.0
  P  P6228  1  0.48504973  0.62004423  0.44665358  1.0
  P  P6229  1  0.48504973  0.74504423  0.44665358  1.0
  P  P6230  1  0.48504973  0.87004423  0.44665358  1.0
  P  P6231  1  0.48504973  0.99504423  0.44665358  1.0
  P  P6232  1  0.59616084  0.12004423  0.44665358  1.0
  P  P6233  1  0.59616084  0.24504423  0.44665358  1.0
  P  P6234  1  0.59616084  0.37004423  0.44665358  1.0
  P  P6235  1  0.59616084  0.49504423  0.44665358  1.0
  P  P6236  1  0.59616084  0.62004423  0.44665358  1.0
  P  P6237  1  0.59616084  0.74504423  0.44665358  1.0
  P  P6238  1  0.59616084  0.87004423  0.44665358  1.0
  P  P6239  1  0.59616084  0.99504423  0.44665358  1.0
  P  P6240  1  0.70727195  0.12004423  0.44665358  1.0
  P  P6241  1  0.70727195  0.24504423  0.44665358  1.0
  P  P6242  1  0.70727195  0.37004423  0.44665358  1.0
  P  P6243  1  0.70727195  0.49504423  0.44665358  1.0
  P  P6244  1  0.70727195  0.62004423  0.44665358  1.0
  P  P6245  1  0.70727195  0.74504423  0.44665358  1.0
  P  P6246  1  0.70727195  0.87004423  0.44665358  1.0
  P  P6247  1  0.70727195  0.99504423  0.44665358  1.0
  P  P6248  1  0.81838306  0.12004423  0.44665358  1.0
  P  P6249  1  0.81838306  0.24504423  0.44665358  1.0
  P  P6250  1  0.81838306  0.37004423  0.44665358  1.0
  P  P6251  1  0.81838306  0.49504423  0.44665358  1.0
  P  P6252  1  0.81838306  0.62004423  0.44665358  1.0
  P  P6253  1  0.81838306  0.74504423  0.44665358  1.0
  P  P6254  1  0.81838306  0.87004423  0.44665358  1.0
  P  P6255  1  0.81838306  0.99504423  0.44665358  1.0
  P  P6256  1  0.92949417  0.12004423  0.44665358  1.0
  P  P6257  1  0.92949417  0.24504423  0.44665358  1.0
  P  P6258  1  0.92949417  0.37004423  0.44665358  1.0
  P  P6259  1  0.92949417  0.49504423  0.44665358  1.0
  P  P6260  1  0.92949417  0.62004423  0.44665358  1.0
  P  P6261  1  0.92949417  0.74504423  0.44665358  1.0
  P  P6262  1  0.92949417  0.87004423  0.44665358  1.0
  P  P6263  1  0.92949417  0.99504423  0.44665358  1.0
  P  P6264  1  0.09166985  0.00495577  0.38667976  1.0
  P  P6265  1  0.09166985  0.12995577  0.38667976  1.0
  P  P6266  1  0.09166985  0.25495577  0.38667976  1.0
  P  P6267  1  0.09166985  0.37995577  0.38667976  1.0
  P  P6268  1  0.09166985  0.50495577  0.38667976  1.0
  P  P6269  1  0.09166985  0.62995577  0.38667976  1.0
  P  P6270  1  0.09166985  0.75495577  0.38667976  1.0
  P  P6271  1  0.09166985  0.87995577  0.38667976  1.0
  P  P6272  1  0.20278096  0.00495577  0.38667976  1.0
  P  P6273  1  0.20278096  0.12995577  0.38667976  1.0
  P  P6274  1  0.20278096  0.25495577  0.38667976  1.0
  P  P6275  1  0.20278096  0.37995577  0.38667976  1.0
  P  P6276  1  0.20278096  0.50495577  0.38667976  1.0
  P  P6277  1  0.20278096  0.62995577  0.38667976  1.0
  P  P6278  1  0.20278096  0.75495577  0.38667976  1.0
  P  P6279  1  0.20278096  0.87995577  0.38667976  1.0
  P  P6280  1  0.31389207  0.00495577  0.38667976  1.0
  P  P6281  1  0.31389207  0.12995577  0.38667976  1.0
  P  P6282  1  0.31389207  0.25495577  0.38667976  1.0
  P  P6283  1  0.31389207  0.37995577  0.38667976  1.0
  P  P6284  1  0.31389207  0.50495577  0.38667976  1.0
  P  P6285  1  0.31389207  0.62995577  0.38667976  1.0
  P  P6286  1  0.31389207  0.75495577  0.38667976  1.0
  P  P6287  1  0.31389207  0.87995577  0.38667976  1.0
  P  P6288  1  0.42500318  0.00495577  0.38667976  1.0
  P  P6289  1  0.42500318  0.12995577  0.38667976  1.0
  P  P6290  1  0.42500318  0.25495577  0.38667976  1.0
  P  P6291  1  0.42500318  0.37995577  0.38667976  1.0
  P  P6292  1  0.42500318  0.50495577  0.38667976  1.0
  P  P6293  1  0.42500318  0.62995577  0.38667976  1.0
  P  P6294  1  0.42500318  0.75495577  0.38667976  1.0
  P  P6295  1  0.42500318  0.87995577  0.38667976  1.0
  P  P6296  1  0.53611430  0.00495577  0.38667976  1.0
  P  P6297  1  0.53611430  0.12995577  0.38667976  1.0
  P  P6298  1  0.53611430  0.25495577  0.38667976  1.0
  P  P6299  1  0.53611430  0.37995577  0.38667976  1.0
  P  P6300  1  0.53611430  0.50495577  0.38667976  1.0
  P  P6301  1  0.53611430  0.62995577  0.38667976  1.0
  P  P6302  1  0.53611430  0.75495577  0.38667976  1.0
  P  P6303  1  0.53611430  0.87995577  0.38667976  1.0
  P  P6304  1  0.64722541  0.00495577  0.38667976  1.0
  P  P6305  1  0.64722541  0.12995577  0.38667976  1.0
  P  P6306  1  0.64722541  0.25495577  0.38667976  1.0
  P  P6307  1  0.64722541  0.37995577  0.38667976  1.0
  P  P6308  1  0.64722541  0.50495577  0.38667976  1.0
  P  P6309  1  0.64722541  0.62995577  0.38667976  1.0
  P  P6310  1  0.64722541  0.75495577  0.38667976  1.0
  P  P6311  1  0.64722541  0.87995577  0.38667976  1.0
  P  P6312  1  0.75833652  0.00495577  0.38667976  1.0
  P  P6313  1  0.75833652  0.12995577  0.38667976  1.0
  P  P6314  1  0.75833652  0.25495577  0.38667976  1.0
  P  P6315  1  0.75833652  0.37995577  0.38667976  1.0
  P  P6316  1  0.75833652  0.50495577  0.38667976  1.0
  P  P6317  1  0.75833652  0.62995577  0.38667976  1.0
  P  P6318  1  0.75833652  0.75495577  0.38667976  1.0
  P  P6319  1  0.75833652  0.87995577  0.38667976  1.0
  P  P6320  1  0.86944763  0.00495577  0.38667976  1.0
  P  P6321  1  0.86944763  0.12995577  0.38667976  1.0
  P  P6322  1  0.86944763  0.25495577  0.38667976  1.0
  P  P6323  1  0.86944763  0.37995577  0.38667976  1.0
  P  P6324  1  0.86944763  0.50495577  0.38667976  1.0
  P  P6325  1  0.86944763  0.62995577  0.38667976  1.0
  P  P6326  1  0.86944763  0.75495577  0.38667976  1.0
  P  P6327  1  0.86944763  0.87995577  0.38667976  1.0
  P  P6328  1  0.98055874  0.00495577  0.38667976  1.0
  P  P6329  1  0.98055874  0.12995577  0.38667976  1.0
  P  P6330  1  0.98055874  0.25495577  0.38667976  1.0
  P  P6331  1  0.98055874  0.37995577  0.38667976  1.0
  P  P6332  1  0.98055874  0.50495577  0.38667976  1.0
  P  P6333  1  0.98055874  0.62995577  0.38667976  1.0
  P  P6334  1  0.98055874  0.75495577  0.38667976  1.0
  P  P6335  1  0.98055874  0.87995577  0.38667976  1.0
  P  P6336  1  0.03346879  0.00495577  0.48191785  1.0
  P  P6337  1  0.03346879  0.12995577  0.48191785  1.0
  P  P6338  1  0.03346879  0.25495577  0.48191785  1.0
  P  P6339  1  0.03346879  0.37995577  0.48191785  1.0
  P  P6340  1  0.03346879  0.50495577  0.48191785  1.0
  P  P6341  1  0.03346879  0.62995577  0.48191785  1.0
  P  P6342  1  0.03346879  0.75495577  0.48191785  1.0
  P  P6343  1  0.03346879  0.87995577  0.48191785  1.0
  P  P6344  1  0.14457990  0.00495577  0.48191785  1.0
  P  P6345  1  0.14457990  0.12995577  0.48191785  1.0
  P  P6346  1  0.14457990  0.25495577  0.48191785  1.0
  P  P6347  1  0.14457990  0.37995577  0.48191785  1.0
  P  P6348  1  0.14457990  0.50495577  0.48191785  1.0
  P  P6349  1  0.14457990  0.62995577  0.48191785  1.0
  P  P6350  1  0.14457990  0.75495577  0.48191785  1.0
  P  P6351  1  0.14457990  0.87995577  0.48191785  1.0
  P  P6352  1  0.25569101  0.00495577  0.48191785  1.0
  P  P6353  1  0.25569101  0.12995577  0.48191785  1.0
  P  P6354  1  0.25569101  0.25495577  0.48191785  1.0
  P  P6355  1  0.25569101  0.37995577  0.48191785  1.0
  P  P6356  1  0.25569101  0.50495577  0.48191785  1.0
  P  P6357  1  0.25569101  0.62995577  0.48191785  1.0
  P  P6358  1  0.25569101  0.75495577  0.48191785  1.0
  P  P6359  1  0.25569101  0.87995577  0.48191785  1.0
  P  P6360  1  0.36680213  0.00495577  0.48191785  1.0
  P  P6361  1  0.36680213  0.12995577  0.48191785  1.0
  P  P6362  1  0.36680213  0.25495577  0.48191785  1.0
  P  P6363  1  0.36680213  0.37995577  0.48191785  1.0
  P  P6364  1  0.36680213  0.50495577  0.48191785  1.0
  P  P6365  1  0.36680213  0.62995577  0.48191785  1.0
  P  P6366  1  0.36680213  0.75495577  0.48191785  1.0
  P  P6367  1  0.36680213  0.87995577  0.48191785  1.0
  P  P6368  1  0.47791324  0.00495577  0.48191785  1.0
  P  P6369  1  0.47791324  0.12995577  0.48191785  1.0
  P  P6370  1  0.47791324  0.25495577  0.48191785  1.0
  P  P6371  1  0.47791324  0.37995577  0.48191785  1.0
  P  P6372  1  0.47791324  0.50495577  0.48191785  1.0
  P  P6373  1  0.47791324  0.62995577  0.48191785  1.0
  P  P6374  1  0.47791324  0.75495577  0.48191785  1.0
  P  P6375  1  0.47791324  0.87995577  0.48191785  1.0
  P  P6376  1  0.58902435  0.00495577  0.48191785  1.0
  P  P6377  1  0.58902435  0.12995577  0.48191785  1.0
  P  P6378  1  0.58902435  0.25495577  0.48191785  1.0
  P  P6379  1  0.58902435  0.37995577  0.48191785  1.0
  P  P6380  1  0.58902435  0.50495577  0.48191785  1.0
  P  P6381  1  0.58902435  0.62995577  0.48191785  1.0
  P  P6382  1  0.58902435  0.75495577  0.48191785  1.0
  P  P6383  1  0.58902435  0.87995577  0.48191785  1.0
  P  P6384  1  0.70013546  0.00495577  0.48191785  1.0
  P  P6385  1  0.70013546  0.12995577  0.48191785  1.0
  P  P6386  1  0.70013546  0.25495577  0.48191785  1.0
  P  P6387  1  0.70013546  0.37995577  0.48191785  1.0
  P  P6388  1  0.70013546  0.50495577  0.48191785  1.0
  P  P6389  1  0.70013546  0.62995577  0.48191785  1.0
  P  P6390  1  0.70013546  0.75495577  0.48191785  1.0
  P  P6391  1  0.70013546  0.87995577  0.48191785  1.0
  P  P6392  1  0.81124657  0.00495577  0.48191785  1.0
  P  P6393  1  0.81124657  0.12995577  0.48191785  1.0
  P  P6394  1  0.81124657  0.25495577  0.48191785  1.0
  P  P6395  1  0.81124657  0.37995577  0.48191785  1.0
  P  P6396  1  0.81124657  0.50495577  0.48191785  1.0
  P  P6397  1  0.81124657  0.62995577  0.48191785  1.0
  P  P6398  1  0.81124657  0.75495577  0.48191785  1.0
  P  P6399  1  0.81124657  0.87995577  0.48191785  1.0
  P  P6400  1  0.92235768  0.00495577  0.48191785  1.0
  P  P6401  1  0.92235768  0.12995577  0.48191785  1.0
  P  P6402  1  0.92235768  0.25495577  0.48191785  1.0
  P  P6403  1  0.92235768  0.37995577  0.48191785  1.0
  P  P6404  1  0.92235768  0.50495577  0.48191785  1.0
  P  P6405  1  0.92235768  0.62995577  0.48191785  1.0
  P  P6406  1  0.92235768  0.75495577  0.48191785  1.0
  P  P6407  1  0.92235768  0.87995577  0.48191785  1.0
  P  P6408  1  0.00701377  0.00495577  0.43429880  1.0
  P  P6409  1  0.00701377  0.12995577  0.43429880  1.0
  P  P6410  1  0.00701377  0.25495577  0.43429880  1.0
  P  P6411  1  0.00701377  0.37995577  0.43429880  1.0
  P  P6412  1  0.00701377  0.50495577  0.43429880  1.0
  P  P6413  1  0.00701377  0.62995577  0.43429880  1.0
  P  P6414  1  0.00701377  0.75495577  0.43429880  1.0
  P  P6415  1  0.00701377  0.87995577  0.43429880  1.0
  P  P6416  1  0.11812488  0.00495577  0.43429880  1.0
  P  P6417  1  0.11812488  0.12995577  0.43429880  1.0
  P  P6418  1  0.11812488  0.25495577  0.43429880  1.0
  P  P6419  1  0.11812488  0.37995577  0.43429880  1.0
  P  P6420  1  0.11812488  0.50495577  0.43429880  1.0
  P  P6421  1  0.11812488  0.62995577  0.43429880  1.0
  P  P6422  1  0.11812488  0.75495577  0.43429880  1.0
  P  P6423  1  0.11812488  0.87995577  0.43429880  1.0
  P  P6424  1  0.22923599  0.00495577  0.43429880  1.0
  P  P6425  1  0.22923599  0.12995577  0.43429880  1.0
  P  P6426  1  0.22923599  0.25495577  0.43429880  1.0
  P  P6427  1  0.22923599  0.37995577  0.43429880  1.0
  P  P6428  1  0.22923599  0.50495577  0.43429880  1.0
  P  P6429  1  0.22923599  0.62995577  0.43429880  1.0
  P  P6430  1  0.22923599  0.75495577  0.43429880  1.0
  P  P6431  1  0.22923599  0.87995577  0.43429880  1.0
  P  P6432  1  0.34034710  0.00495577  0.43429880  1.0
  P  P6433  1  0.34034710  0.12995577  0.43429880  1.0
  P  P6434  1  0.34034710  0.25495577  0.43429880  1.0
  P  P6435  1  0.34034710  0.37995577  0.43429880  1.0
  P  P6436  1  0.34034710  0.50495577  0.43429880  1.0
  P  P6437  1  0.34034710  0.62995577  0.43429880  1.0
  P  P6438  1  0.34034710  0.75495577  0.43429880  1.0
  P  P6439  1  0.34034710  0.87995577  0.43429880  1.0
  P  P6440  1  0.45145821  0.00495577  0.43429880  1.0
  P  P6441  1  0.45145821  0.12995577  0.43429880  1.0
  P  P6442  1  0.45145821  0.25495577  0.43429880  1.0
  P  P6443  1  0.45145821  0.37995577  0.43429880  1.0
  P  P6444  1  0.45145821  0.50495577  0.43429880  1.0
  P  P6445  1  0.45145821  0.62995577  0.43429880  1.0
  P  P6446  1  0.45145821  0.75495577  0.43429880  1.0
  P  P6447  1  0.45145821  0.87995577  0.43429880  1.0
  P  P6448  1  0.56256932  0.00495577  0.43429880  1.0
  P  P6449  1  0.56256932  0.12995577  0.43429880  1.0
  P  P6450  1  0.56256932  0.25495577  0.43429880  1.0
  P  P6451  1  0.56256932  0.37995577  0.43429880  1.0
  P  P6452  1  0.56256932  0.50495577  0.43429880  1.0
  P  P6453  1  0.56256932  0.62995577  0.43429880  1.0
  P  P6454  1  0.56256932  0.75495577  0.43429880  1.0
  P  P6455  1  0.56256932  0.87995577  0.43429880  1.0
  P  P6456  1  0.67368043  0.00495577  0.43429880  1.0
  P  P6457  1  0.67368043  0.12995577  0.43429880  1.0
  P  P6458  1  0.67368043  0.25495577  0.43429880  1.0
  P  P6459  1  0.67368043  0.37995577  0.43429880  1.0
  P  P6460  1  0.67368043  0.50495577  0.43429880  1.0
  P  P6461  1  0.67368043  0.62995577  0.43429880  1.0
  P  P6462  1  0.67368043  0.75495577  0.43429880  1.0
  P  P6463  1  0.67368043  0.87995577  0.43429880  1.0
  P  P6464  1  0.78479154  0.00495577  0.43429880  1.0
  P  P6465  1  0.78479154  0.12995577  0.43429880  1.0
  P  P6466  1  0.78479154  0.25495577  0.43429880  1.0
  P  P6467  1  0.78479154  0.37995577  0.43429880  1.0
  P  P6468  1  0.78479154  0.50495577  0.43429880  1.0
  P  P6469  1  0.78479154  0.62995577  0.43429880  1.0
  P  P6470  1  0.78479154  0.75495577  0.43429880  1.0
  P  P6471  1  0.78479154  0.87995577  0.43429880  1.0
  P  P6472  1  0.89590265  0.00495577  0.43429880  1.0
  P  P6473  1  0.89590265  0.12995577  0.43429880  1.0
  P  P6474  1  0.89590265  0.25495577  0.43429880  1.0
  P  P6475  1  0.89590265  0.37995577  0.43429880  1.0
  P  P6476  1  0.89590265  0.50495577  0.43429880  1.0
  P  P6477  1  0.89590265  0.62995577  0.43429880  1.0
  P  P6478  1  0.89590265  0.75495577  0.43429880  1.0
  P  P6479  1  0.89590265  0.87995577  0.43429880  1.0
  P  P6480  1  0.05647830  0.06745577  0.37522501  1.0
  P  P6481  1  0.05647830  0.19245577  0.37522501  1.0
  P  P6482  1  0.05647830  0.31745577  0.37522501  1.0
  P  P6483  1  0.05647830  0.44245577  0.37522501  1.0
  P  P6484  1  0.05647830  0.56745577  0.37522501  1.0
  P  P6485  1  0.05647830  0.69245577  0.37522501  1.0
  P  P6486  1  0.05647830  0.81745577  0.37522501  1.0
  P  P6487  1  0.05647830  0.94245577  0.37522501  1.0
  P  P6488  1  0.16758941  0.06745577  0.37522501  1.0
  P  P6489  1  0.16758941  0.19245577  0.37522501  1.0
  P  P6490  1  0.16758941  0.31745577  0.37522501  1.0
  P  P6491  1  0.16758941  0.44245577  0.37522501  1.0
  P  P6492  1  0.16758941  0.56745577  0.37522501  1.0
  P  P6493  1  0.16758941  0.69245577  0.37522501  1.0
  P  P6494  1  0.16758941  0.81745577  0.37522501  1.0
  P  P6495  1  0.16758941  0.94245577  0.37522501  1.0
  P  P6496  1  0.27870052  0.06745577  0.37522501  1.0
  P  P6497  1  0.27870052  0.19245577  0.37522501  1.0
  P  P6498  1  0.27870052  0.31745577  0.37522501  1.0
  P  P6499  1  0.27870052  0.44245577  0.37522501  1.0
  P  P6500  1  0.27870052  0.56745577  0.37522501  1.0
  P  P6501  1  0.27870052  0.69245577  0.37522501  1.0
  P  P6502  1  0.27870052  0.81745577  0.37522501  1.0
  P  P6503  1  0.27870052  0.94245577  0.37522501  1.0
  P  P6504  1  0.38981163  0.06745577  0.37522501  1.0
  P  P6505  1  0.38981163  0.19245577  0.37522501  1.0
  P  P6506  1  0.38981163  0.31745577  0.37522501  1.0
  P  P6507  1  0.38981163  0.44245577  0.37522501  1.0
  P  P6508  1  0.38981163  0.56745577  0.37522501  1.0
  P  P6509  1  0.38981163  0.69245577  0.37522501  1.0
  P  P6510  1  0.38981163  0.81745577  0.37522501  1.0
  P  P6511  1  0.38981163  0.94245577  0.37522501  1.0
  P  P6512  1  0.50092274  0.06745577  0.37522501  1.0
  P  P6513  1  0.50092274  0.19245577  0.37522501  1.0
  P  P6514  1  0.50092274  0.31745577  0.37522501  1.0
  P  P6515  1  0.50092274  0.44245577  0.37522501  1.0
  P  P6516  1  0.50092274  0.56745577  0.37522501  1.0
  P  P6517  1  0.50092274  0.69245577  0.37522501  1.0
  P  P6518  1  0.50092274  0.81745577  0.37522501  1.0
  P  P6519  1  0.50092274  0.94245577  0.37522501  1.0
  P  P6520  1  0.61203385  0.06745577  0.37522501  1.0
  P  P6521  1  0.61203385  0.19245577  0.37522501  1.0
  P  P6522  1  0.61203385  0.31745577  0.37522501  1.0
  P  P6523  1  0.61203385  0.44245577  0.37522501  1.0
  P  P6524  1  0.61203385  0.56745577  0.37522501  1.0
  P  P6525  1  0.61203385  0.69245577  0.37522501  1.0
  P  P6526  1  0.61203385  0.81745577  0.37522501  1.0
  P  P6527  1  0.61203385  0.94245577  0.37522501  1.0
  P  P6528  1  0.72314496  0.06745577  0.37522501  1.0
  P  P6529  1  0.72314496  0.19245577  0.37522501  1.0
  P  P6530  1  0.72314496  0.31745577  0.37522501  1.0
  P  P6531  1  0.72314496  0.44245577  0.37522501  1.0
  P  P6532  1  0.72314496  0.56745577  0.37522501  1.0
  P  P6533  1  0.72314496  0.69245577  0.37522501  1.0
  P  P6534  1  0.72314496  0.81745577  0.37522501  1.0
  P  P6535  1  0.72314496  0.94245577  0.37522501  1.0
  P  P6536  1  0.83425608  0.06745577  0.37522501  1.0
  P  P6537  1  0.83425608  0.19245577  0.37522501  1.0
  P  P6538  1  0.83425608  0.31745577  0.37522501  1.0
  P  P6539  1  0.83425608  0.44245577  0.37522501  1.0
  P  P6540  1  0.83425608  0.56745577  0.37522501  1.0
  P  P6541  1  0.83425608  0.69245577  0.37522501  1.0
  P  P6542  1  0.83425608  0.81745577  0.37522501  1.0
  P  P6543  1  0.83425608  0.94245577  0.37522501  1.0
  P  P6544  1  0.94536719  0.06745577  0.37522501  1.0
  P  P6545  1  0.94536719  0.19245577  0.37522501  1.0
  P  P6546  1  0.94536719  0.31745577  0.37522501  1.0
  P  P6547  1  0.94536719  0.44245577  0.37522501  1.0
  P  P6548  1  0.94536719  0.56745577  0.37522501  1.0
  P  P6549  1  0.94536719  0.69245577  0.37522501  1.0
  P  P6550  1  0.94536719  0.81745577  0.37522501  1.0
  P  P6551  1  0.94536719  0.94245577  0.37522501  1.0
  P  P6552  1  0.10938835  0.06745577  0.47046310  1.0
  P  P6553  1  0.10938835  0.19245577  0.47046310  1.0
  P  P6554  1  0.10938835  0.31745577  0.47046310  1.0
  P  P6555  1  0.10938835  0.44245577  0.47046310  1.0
  P  P6556  1  0.10938835  0.56745577  0.47046310  1.0
  P  P6557  1  0.10938835  0.69245577  0.47046310  1.0
  P  P6558  1  0.10938835  0.81745577  0.47046310  1.0
  P  P6559  1  0.10938835  0.94245577  0.47046310  1.0
  P  P6560  1  0.22049946  0.06745577  0.47046310  1.0
  P  P6561  1  0.22049946  0.19245577  0.47046310  1.0
  P  P6562  1  0.22049946  0.31745577  0.47046310  1.0
  P  P6563  1  0.22049946  0.44245577  0.47046310  1.0
  P  P6564  1  0.22049946  0.56745577  0.47046310  1.0
  P  P6565  1  0.22049946  0.69245577  0.47046310  1.0
  P  P6566  1  0.22049946  0.81745577  0.47046310  1.0
  P  P6567  1  0.22049946  0.94245577  0.47046310  1.0
  P  P6568  1  0.33161057  0.06745577  0.47046310  1.0
  P  P6569  1  0.33161057  0.19245577  0.47046310  1.0
  P  P6570  1  0.33161057  0.31745577  0.47046310  1.0
  P  P6571  1  0.33161057  0.44245577  0.47046310  1.0
  P  P6572  1  0.33161057  0.56745577  0.47046310  1.0
  P  P6573  1  0.33161057  0.69245577  0.47046310  1.0
  P  P6574  1  0.33161057  0.81745577  0.47046310  1.0
  P  P6575  1  0.33161057  0.94245577  0.47046310  1.0
  P  P6576  1  0.44272168  0.06745577  0.47046310  1.0
  P  P6577  1  0.44272168  0.19245577  0.47046310  1.0
  P  P6578  1  0.44272168  0.31745577  0.47046310  1.0
  P  P6579  1  0.44272168  0.44245577  0.47046310  1.0
  P  P6580  1  0.44272168  0.56745577  0.47046310  1.0
  P  P6581  1  0.44272168  0.69245577  0.47046310  1.0
  P  P6582  1  0.44272168  0.81745577  0.47046310  1.0
  P  P6583  1  0.44272168  0.94245577  0.47046310  1.0
  P  P6584  1  0.55383279  0.06745577  0.47046310  1.0
  P  P6585  1  0.55383279  0.19245577  0.47046310  1.0
  P  P6586  1  0.55383279  0.31745577  0.47046310  1.0
  P  P6587  1  0.55383279  0.44245577  0.47046310  1.0
  P  P6588  1  0.55383279  0.56745577  0.47046310  1.0
  P  P6589  1  0.55383279  0.69245577  0.47046310  1.0
  P  P6590  1  0.55383279  0.81745577  0.47046310  1.0
  P  P6591  1  0.55383279  0.94245577  0.47046310  1.0
  P  P6592  1  0.66494391  0.06745577  0.47046310  1.0
  P  P6593  1  0.66494391  0.19245577  0.47046310  1.0
  P  P6594  1  0.66494391  0.31745577  0.47046310  1.0
  P  P6595  1  0.66494391  0.44245577  0.47046310  1.0
  P  P6596  1  0.66494391  0.56745577  0.47046310  1.0
  P  P6597  1  0.66494391  0.69245577  0.47046310  1.0
  P  P6598  1  0.66494391  0.81745577  0.47046310  1.0
  P  P6599  1  0.66494391  0.94245577  0.47046310  1.0
  P  P6600  1  0.77605502  0.06745577  0.47046310  1.0
  P  P6601  1  0.77605502  0.19245577  0.47046310  1.0
  P  P6602  1  0.77605502  0.31745577  0.47046310  1.0
  P  P6603  1  0.77605502  0.44245577  0.47046310  1.0
  P  P6604  1  0.77605502  0.56745577  0.47046310  1.0
  P  P6605  1  0.77605502  0.69245577  0.47046310  1.0
  P  P6606  1  0.77605502  0.81745577  0.47046310  1.0
  P  P6607  1  0.77605502  0.94245577  0.47046310  1.0
  P  P6608  1  0.88716613  0.06745577  0.47046310  1.0
  P  P6609  1  0.88716613  0.19245577  0.47046310  1.0
  P  P6610  1  0.88716613  0.31745577  0.47046310  1.0
  P  P6611  1  0.88716613  0.44245577  0.47046310  1.0
  P  P6612  1  0.88716613  0.56745577  0.47046310  1.0
  P  P6613  1  0.88716613  0.69245577  0.47046310  1.0
  P  P6614  1  0.88716613  0.81745577  0.47046310  1.0
  P  P6615  1  0.88716613  0.94245577  0.47046310  1.0
  P  P6616  1  0.99827724  0.06745577  0.47046310  1.0
  P  P6617  1  0.99827724  0.19245577  0.47046310  1.0
  P  P6618  1  0.99827724  0.31745577  0.47046310  1.0
  P  P6619  1  0.99827724  0.44245577  0.47046310  1.0
  P  P6620  1  0.99827724  0.56745577  0.47046310  1.0
  P  P6621  1  0.99827724  0.69245577  0.47046310  1.0
  P  P6622  1  0.99827724  0.81745577  0.47046310  1.0
  P  P6623  1  0.99827724  0.94245577  0.47046310  1.0
  P  P6624  1  0.08293332  0.06745577  0.42284405  1.0
  P  P6625  1  0.08293332  0.19245577  0.42284405  1.0
  P  P6626  1  0.08293332  0.31745577  0.42284405  1.0
  P  P6627  1  0.08293332  0.44245577  0.42284405  1.0
  P  P6628  1  0.08293332  0.56745577  0.42284405  1.0
  P  P6629  1  0.08293332  0.69245577  0.42284405  1.0
  P  P6630  1  0.08293332  0.81745577  0.42284405  1.0
  P  P6631  1  0.08293332  0.94245577  0.42284405  1.0
  P  P6632  1  0.19404444  0.06745577  0.42284405  1.0
  P  P6633  1  0.19404444  0.19245577  0.42284405  1.0
  P  P6634  1  0.19404444  0.31745577  0.42284405  1.0
  P  P6635  1  0.19404444  0.44245577  0.42284405  1.0
  P  P6636  1  0.19404444  0.56745577  0.42284405  1.0
  P  P6637  1  0.19404444  0.69245577  0.42284405  1.0
  P  P6638  1  0.19404444  0.81745577  0.42284405  1.0
  P  P6639  1  0.19404444  0.94245577  0.42284405  1.0
  P  P6640  1  0.30515555  0.06745577  0.42284405  1.0
  P  P6641  1  0.30515555  0.19245577  0.42284405  1.0
  P  P6642  1  0.30515555  0.31745577  0.42284405  1.0
  P  P6643  1  0.30515555  0.44245577  0.42284405  1.0
  P  P6644  1  0.30515555  0.56745577  0.42284405  1.0
  P  P6645  1  0.30515555  0.69245577  0.42284405  1.0
  P  P6646  1  0.30515555  0.81745577  0.42284405  1.0
  P  P6647  1  0.30515555  0.94245577  0.42284405  1.0
  P  P6648  1  0.41626666  0.06745577  0.42284405  1.0
  P  P6649  1  0.41626666  0.19245577  0.42284405  1.0
  P  P6650  1  0.41626666  0.31745577  0.42284405  1.0
  P  P6651  1  0.41626666  0.44245577  0.42284405  1.0
  P  P6652  1  0.41626666  0.56745577  0.42284405  1.0
  P  P6653  1  0.41626666  0.69245577  0.42284405  1.0
  P  P6654  1  0.41626666  0.81745577  0.42284405  1.0
  P  P6655  1  0.41626666  0.94245577  0.42284405  1.0
  P  P6656  1  0.52737777  0.06745577  0.42284405  1.0
  P  P6657  1  0.52737777  0.19245577  0.42284405  1.0
  P  P6658  1  0.52737777  0.31745577  0.42284405  1.0
  P  P6659  1  0.52737777  0.44245577  0.42284405  1.0
  P  P6660  1  0.52737777  0.56745577  0.42284405  1.0
  P  P6661  1  0.52737777  0.69245577  0.42284405  1.0
  P  P6662  1  0.52737777  0.81745577  0.42284405  1.0
  P  P6663  1  0.52737777  0.94245577  0.42284405  1.0
  P  P6664  1  0.63848888  0.06745577  0.42284405  1.0
  P  P6665  1  0.63848888  0.19245577  0.42284405  1.0
  P  P6666  1  0.63848888  0.31745577  0.42284405  1.0
  P  P6667  1  0.63848888  0.44245577  0.42284405  1.0
  P  P6668  1  0.63848888  0.56745577  0.42284405  1.0
  P  P6669  1  0.63848888  0.69245577  0.42284405  1.0
  P  P6670  1  0.63848888  0.81745577  0.42284405  1.0
  P  P6671  1  0.63848888  0.94245577  0.42284405  1.0
  P  P6672  1  0.74959999  0.06745577  0.42284405  1.0
  P  P6673  1  0.74959999  0.19245577  0.42284405  1.0
  P  P6674  1  0.74959999  0.31745577  0.42284405  1.0
  P  P6675  1  0.74959999  0.44245577  0.42284405  1.0
  P  P6676  1  0.74959999  0.56745577  0.42284405  1.0
  P  P6677  1  0.74959999  0.69245577  0.42284405  1.0
  P  P6678  1  0.74959999  0.81745577  0.42284405  1.0
  P  P6679  1  0.74959999  0.94245577  0.42284405  1.0
  P  P6680  1  0.86071110  0.06745577  0.42284405  1.0
  P  P6681  1  0.86071110  0.19245577  0.42284405  1.0
  P  P6682  1  0.86071110  0.31745577  0.42284405  1.0
  P  P6683  1  0.86071110  0.44245577  0.42284405  1.0
  P  P6684  1  0.86071110  0.56745577  0.42284405  1.0
  P  P6685  1  0.86071110  0.69245577  0.42284405  1.0
  P  P6686  1  0.86071110  0.81745577  0.42284405  1.0
  P  P6687  1  0.86071110  0.94245577  0.42284405  1.0
  P  P6688  1  0.97182221  0.06745577  0.42284405  1.0
  P  P6689  1  0.97182221  0.19245577  0.42284405  1.0
  P  P6690  1  0.97182221  0.31745577  0.42284405  1.0
  P  P6691  1  0.97182221  0.44245577  0.42284405  1.0
  P  P6692  1  0.97182221  0.56745577  0.42284405  1.0
  P  P6693  1  0.97182221  0.69245577  0.42284405  1.0
  P  P6694  1  0.97182221  0.81745577  0.42284405  1.0
  P  P6695  1  0.97182221  0.94245577  0.42284405  1.0
  P  P6696  1  0.04934181  0.05754423  0.41048928  1.0
  P  P6697  1  0.04934181  0.18254423  0.41048928  1.0
  P  P6698  1  0.04934181  0.30754423  0.41048928  1.0
  P  P6699  1  0.04934181  0.43254423  0.41048928  1.0
  P  P6700  1  0.04934181  0.55754423  0.41048928  1.0
  P  P6701  1  0.04934181  0.68254423  0.41048928  1.0
  P  P6702  1  0.04934181  0.80754423  0.41048928  1.0
  P  P6703  1  0.04934181  0.93254423  0.41048928  1.0
  P  P6704  1  0.16045292  0.05754423  0.41048928  1.0
  P  P6705  1  0.16045292  0.18254423  0.41048928  1.0
  P  P6706  1  0.16045292  0.30754423  0.41048928  1.0
  P  P6707  1  0.16045292  0.43254423  0.41048928  1.0
  P  P6708  1  0.16045292  0.55754423  0.41048928  1.0
  P  P6709  1  0.16045292  0.68254423  0.41048928  1.0
  P  P6710  1  0.16045292  0.80754423  0.41048928  1.0
  P  P6711  1  0.16045292  0.93254423  0.41048928  1.0
  P  P6712  1  0.27156403  0.05754423  0.41048928  1.0
  P  P6713  1  0.27156403  0.18254423  0.41048928  1.0
  P  P6714  1  0.27156403  0.30754423  0.41048928  1.0
  P  P6715  1  0.27156403  0.43254423  0.41048928  1.0
  P  P6716  1  0.27156403  0.55754423  0.41048928  1.0
  P  P6717  1  0.27156403  0.68254423  0.41048928  1.0
  P  P6718  1  0.27156403  0.80754423  0.41048928  1.0
  P  P6719  1  0.27156403  0.93254423  0.41048928  1.0
  P  P6720  1  0.38267514  0.05754423  0.41048928  1.0
  P  P6721  1  0.38267514  0.18254423  0.41048928  1.0
  P  P6722  1  0.38267514  0.30754423  0.41048928  1.0
  P  P6723  1  0.38267514  0.43254423  0.41048928  1.0
  P  P6724  1  0.38267514  0.55754423  0.41048928  1.0
  P  P6725  1  0.38267514  0.68254423  0.41048928  1.0
  P  P6726  1  0.38267514  0.80754423  0.41048928  1.0
  P  P6727  1  0.38267514  0.93254423  0.41048928  1.0
  P  P6728  1  0.49378625  0.05754423  0.41048928  1.0
  P  P6729  1  0.49378625  0.18254423  0.41048928  1.0
  P  P6730  1  0.49378625  0.30754423  0.41048928  1.0
  P  P6731  1  0.49378625  0.43254423  0.41048928  1.0
  P  P6732  1  0.49378625  0.55754423  0.41048928  1.0
  P  P6733  1  0.49378625  0.68254423  0.41048928  1.0
  P  P6734  1  0.49378625  0.80754423  0.41048928  1.0
  P  P6735  1  0.49378625  0.93254423  0.41048928  1.0
  P  P6736  1  0.60489736  0.05754423  0.41048928  1.0
  P  P6737  1  0.60489736  0.18254423  0.41048928  1.0
  P  P6738  1  0.60489736  0.30754423  0.41048928  1.0
  P  P6739  1  0.60489736  0.43254423  0.41048928  1.0
  P  P6740  1  0.60489736  0.55754423  0.41048928  1.0
  P  P6741  1  0.60489736  0.68254423  0.41048928  1.0
  P  P6742  1  0.60489736  0.80754423  0.41048928  1.0
  P  P6743  1  0.60489736  0.93254423  0.41048928  1.0
  P  P6744  1  0.71600847  0.05754423  0.41048928  1.0
  P  P6745  1  0.71600847  0.18254423  0.41048928  1.0
  P  P6746  1  0.71600847  0.30754423  0.41048928  1.0
  P  P6747  1  0.71600847  0.43254423  0.41048928  1.0
  P  P6748  1  0.71600847  0.55754423  0.41048928  1.0
  P  P6749  1  0.71600847  0.68254423  0.41048928  1.0
  P  P6750  1  0.71600847  0.80754423  0.41048928  1.0
  P  P6751  1  0.71600847  0.93254423  0.41048928  1.0
  P  P6752  1  0.82711959  0.05754423  0.41048928  1.0
  P  P6753  1  0.82711959  0.18254423  0.41048928  1.0
  P  P6754  1  0.82711959  0.30754423  0.41048928  1.0
  P  P6755  1  0.82711959  0.43254423  0.41048928  1.0
  P  P6756  1  0.82711959  0.55754423  0.41048928  1.0
  P  P6757  1  0.82711959  0.68254423  0.41048928  1.0
  P  P6758  1  0.82711959  0.80754423  0.41048928  1.0
  P  P6759  1  0.82711959  0.93254423  0.41048928  1.0
  P  P6760  1  0.93823070  0.05754423  0.41048928  1.0
  P  P6761  1  0.93823070  0.18254423  0.41048928  1.0
  P  P6762  1  0.93823070  0.30754423  0.41048928  1.0
  P  P6763  1  0.93823070  0.43254423  0.41048928  1.0
  P  P6764  1  0.93823070  0.55754423  0.41048928  1.0
  P  P6765  1  0.93823070  0.68254423  0.41048928  1.0
  P  P6766  1  0.93823070  0.80754423  0.41048928  1.0
  P  P6767  1  0.93823070  0.93254423  0.41048928  1.0
  P  P6768  1  0.02288678  0.05754423  0.36287023  1.0
  P  P6769  1  0.02288678  0.18254423  0.36287023  1.0
  P  P6770  1  0.02288678  0.30754423  0.36287023  1.0
  P  P6771  1  0.02288678  0.43254423  0.36287023  1.0
  P  P6772  1  0.02288678  0.55754423  0.36287023  1.0
  P  P6773  1  0.02288678  0.68254423  0.36287023  1.0
  P  P6774  1  0.02288678  0.80754423  0.36287023  1.0
  P  P6775  1  0.02288678  0.93254423  0.36287023  1.0
  P  P6776  1  0.13399789  0.05754423  0.36287023  1.0
  P  P6777  1  0.13399789  0.18254423  0.36287023  1.0
  P  P6778  1  0.13399789  0.30754423  0.36287023  1.0
  P  P6779  1  0.13399789  0.43254423  0.36287023  1.0
  P  P6780  1  0.13399789  0.55754423  0.36287023  1.0
  P  P6781  1  0.13399789  0.68254423  0.36287023  1.0
  P  P6782  1  0.13399789  0.80754423  0.36287023  1.0
  P  P6783  1  0.13399789  0.93254423  0.36287023  1.0
  P  P6784  1  0.24510900  0.05754423  0.36287023  1.0
  P  P6785  1  0.24510900  0.18254423  0.36287023  1.0
  P  P6786  1  0.24510900  0.30754423  0.36287023  1.0
  P  P6787  1  0.24510900  0.43254423  0.36287023  1.0
  P  P6788  1  0.24510900  0.55754423  0.36287023  1.0
  P  P6789  1  0.24510900  0.68254423  0.36287023  1.0
  P  P6790  1  0.24510900  0.80754423  0.36287023  1.0
  P  P6791  1  0.24510900  0.93254423  0.36287023  1.0
  P  P6792  1  0.35622012  0.05754423  0.36287023  1.0
  P  P6793  1  0.35622012  0.18254423  0.36287023  1.0
  P  P6794  1  0.35622012  0.30754423  0.36287023  1.0
  P  P6795  1  0.35622012  0.43254423  0.36287023  1.0
  P  P6796  1  0.35622012  0.55754423  0.36287023  1.0
  P  P6797  1  0.35622012  0.68254423  0.36287023  1.0
  P  P6798  1  0.35622012  0.80754423  0.36287023  1.0
  P  P6799  1  0.35622012  0.93254423  0.36287023  1.0
  P  P6800  1  0.46733123  0.05754423  0.36287023  1.0
  P  P6801  1  0.46733123  0.18254423  0.36287023  1.0
  P  P6802  1  0.46733123  0.30754423  0.36287023  1.0
  P  P6803  1  0.46733123  0.43254423  0.36287023  1.0
  P  P6804  1  0.46733123  0.55754423  0.36287023  1.0
  P  P6805  1  0.46733123  0.68254423  0.36287023  1.0
  P  P6806  1  0.46733123  0.80754423  0.36287023  1.0
  P  P6807  1  0.46733123  0.93254423  0.36287023  1.0
  P  P6808  1  0.57844234  0.05754423  0.36287023  1.0
  P  P6809  1  0.57844234  0.18254423  0.36287023  1.0
  P  P6810  1  0.57844234  0.30754423  0.36287023  1.0
  P  P6811  1  0.57844234  0.43254423  0.36287023  1.0
  P  P6812  1  0.57844234  0.55754423  0.36287023  1.0
  P  P6813  1  0.57844234  0.68254423  0.36287023  1.0
  P  P6814  1  0.57844234  0.80754423  0.36287023  1.0
  P  P6815  1  0.57844234  0.93254423  0.36287023  1.0
  P  P6816  1  0.68955345  0.05754423  0.36287023  1.0
  P  P6817  1  0.68955345  0.18254423  0.36287023  1.0
  P  P6818  1  0.68955345  0.30754423  0.36287023  1.0
  P  P6819  1  0.68955345  0.43254423  0.36287023  1.0
  P  P6820  1  0.68955345  0.55754423  0.36287023  1.0
  P  P6821  1  0.68955345  0.68254423  0.36287023  1.0
  P  P6822  1  0.68955345  0.80754423  0.36287023  1.0
  P  P6823  1  0.68955345  0.93254423  0.36287023  1.0
  P  P6824  1  0.80066456  0.05754423  0.36287023  1.0
  P  P6825  1  0.80066456  0.18254423  0.36287023  1.0
  P  P6826  1  0.80066456  0.30754423  0.36287023  1.0
  P  P6827  1  0.80066456  0.43254423  0.36287023  1.0
  P  P6828  1  0.80066456  0.55754423  0.36287023  1.0
  P  P6829  1  0.80066456  0.68254423  0.36287023  1.0
  P  P6830  1  0.80066456  0.80754423  0.36287023  1.0
  P  P6831  1  0.80066456  0.93254423  0.36287023  1.0
  P  P6832  1  0.91177567  0.05754423  0.36287023  1.0
  P  P6833  1  0.91177567  0.18254423  0.36287023  1.0
  P  P6834  1  0.91177567  0.30754423  0.36287023  1.0
  P  P6835  1  0.91177567  0.43254423  0.36287023  1.0
  P  P6836  1  0.91177567  0.55754423  0.36287023  1.0
  P  P6837  1  0.91177567  0.68254423  0.36287023  1.0
  P  P6838  1  0.91177567  0.80754423  0.36287023  1.0
  P  P6839  1  0.91177567  0.93254423  0.36287023  1.0
  P  P6840  1  0.07579683  0.05754423  0.45810833  1.0
  P  P6841  1  0.07579683  0.18254423  0.45810833  1.0
  P  P6842  1  0.07579683  0.30754423  0.45810833  1.0
  P  P6843  1  0.07579683  0.43254423  0.45810833  1.0
  P  P6844  1  0.07579683  0.55754423  0.45810833  1.0
  P  P6845  1  0.07579683  0.68254423  0.45810833  1.0
  P  P6846  1  0.07579683  0.80754423  0.45810833  1.0
  P  P6847  1  0.07579683  0.93254423  0.45810833  1.0
  P  P6848  1  0.18690795  0.05754423  0.45810833  1.0
  P  P6849  1  0.18690795  0.18254423  0.45810833  1.0
  P  P6850  1  0.18690795  0.30754423  0.45810833  1.0
  P  P6851  1  0.18690795  0.43254423  0.45810833  1.0
  P  P6852  1  0.18690795  0.55754423  0.45810833  1.0
  P  P6853  1  0.18690795  0.68254423  0.45810833  1.0
  P  P6854  1  0.18690795  0.80754423  0.45810833  1.0
  P  P6855  1  0.18690795  0.93254423  0.45810833  1.0
  P  P6856  1  0.29801906  0.05754423  0.45810833  1.0
  P  P6857  1  0.29801906  0.18254423  0.45810833  1.0
  P  P6858  1  0.29801906  0.30754423  0.45810833  1.0
  P  P6859  1  0.29801906  0.43254423  0.45810833  1.0
  P  P6860  1  0.29801906  0.55754423  0.45810833  1.0
  P  P6861  1  0.29801906  0.68254423  0.45810833  1.0
  P  P6862  1  0.29801906  0.80754423  0.45810833  1.0
  P  P6863  1  0.29801906  0.93254423  0.45810833  1.0
  P  P6864  1  0.40913017  0.05754423  0.45810833  1.0
  P  P6865  1  0.40913017  0.18254423  0.45810833  1.0
  P  P6866  1  0.40913017  0.30754423  0.45810833  1.0
  P  P6867  1  0.40913017  0.43254423  0.45810833  1.0
  P  P6868  1  0.40913017  0.55754423  0.45810833  1.0
  P  P6869  1  0.40913017  0.68254423  0.45810833  1.0
  P  P6870  1  0.40913017  0.80754423  0.45810833  1.0
  P  P6871  1  0.40913017  0.93254423  0.45810833  1.0
  P  P6872  1  0.52024128  0.05754423  0.45810833  1.0
  P  P6873  1  0.52024128  0.18254423  0.45810833  1.0
  P  P6874  1  0.52024128  0.30754423  0.45810833  1.0
  P  P6875  1  0.52024128  0.43254423  0.45810833  1.0
  P  P6876  1  0.52024128  0.55754423  0.45810833  1.0
  P  P6877  1  0.52024128  0.68254423  0.45810833  1.0
  P  P6878  1  0.52024128  0.80754423  0.45810833  1.0
  P  P6879  1  0.52024128  0.93254423  0.45810833  1.0
  P  P6880  1  0.63135239  0.05754423  0.45810833  1.0
  P  P6881  1  0.63135239  0.18254423  0.45810833  1.0
  P  P6882  1  0.63135239  0.30754423  0.45810833  1.0
  P  P6883  1  0.63135239  0.43254423  0.45810833  1.0
  P  P6884  1  0.63135239  0.55754423  0.45810833  1.0
  P  P6885  1  0.63135239  0.68254423  0.45810833  1.0
  P  P6886  1  0.63135239  0.80754423  0.45810833  1.0
  P  P6887  1  0.63135239  0.93254423  0.45810833  1.0
  P  P6888  1  0.74246350  0.05754423  0.45810833  1.0
  P  P6889  1  0.74246350  0.18254423  0.45810833  1.0
  P  P6890  1  0.74246350  0.30754423  0.45810833  1.0
  P  P6891  1  0.74246350  0.43254423  0.45810833  1.0
  P  P6892  1  0.74246350  0.55754423  0.45810833  1.0
  P  P6893  1  0.74246350  0.68254423  0.45810833  1.0
  P  P6894  1  0.74246350  0.80754423  0.45810833  1.0
  P  P6895  1  0.74246350  0.93254423  0.45810833  1.0
  P  P6896  1  0.85357461  0.05754423  0.45810833  1.0
  P  P6897  1  0.85357461  0.18254423  0.45810833  1.0
  P  P6898  1  0.85357461  0.30754423  0.45810833  1.0
  P  P6899  1  0.85357461  0.43254423  0.45810833  1.0
  P  P6900  1  0.85357461  0.55754423  0.45810833  1.0
  P  P6901  1  0.85357461  0.68254423  0.45810833  1.0
  P  P6902  1  0.85357461  0.80754423  0.45810833  1.0
  P  P6903  1  0.85357461  0.93254423  0.45810833  1.0
  P  P6904  1  0.96468572  0.05754423  0.45810833  1.0
  P  P6905  1  0.96468572  0.18254423  0.45810833  1.0
  P  P6906  1  0.96468572  0.30754423  0.45810833  1.0
  P  P6907  1  0.96468572  0.43254423  0.45810833  1.0
  P  P6908  1  0.96468572  0.55754423  0.45810833  1.0
  P  P6909  1  0.96468572  0.68254423  0.45810833  1.0
  P  P6910  1  0.96468572  0.80754423  0.45810833  1.0
  P  P6911  1  0.96468572  0.93254423  0.45810833  1.0
  P  P6912  1  0.02033774  0.10787809  0.55180407  1.0
  P  P6913  1  0.02033774  0.23287809  0.55180407  1.0
  P  P6914  1  0.02033774  0.35787809  0.55180407  1.0
  P  P6915  1  0.02033774  0.48287809  0.55180407  1.0
  P  P6916  1  0.02033774  0.60787809  0.55180407  1.0
  P  P6917  1  0.02033774  0.73287809  0.55180407  1.0
  P  P6918  1  0.02033774  0.85787809  0.55180407  1.0
  P  P6919  1  0.02033774  0.98287809  0.55180407  1.0
  P  P6920  1  0.13144885  0.10787809  0.55180407  1.0
  P  P6921  1  0.13144885  0.23287809  0.55180407  1.0
  P  P6922  1  0.13144885  0.35787809  0.55180407  1.0
  P  P6923  1  0.13144885  0.48287809  0.55180407  1.0
  P  P6924  1  0.13144885  0.60787809  0.55180407  1.0
  P  P6925  1  0.13144885  0.73287809  0.55180407  1.0
  P  P6926  1  0.13144885  0.85787809  0.55180407  1.0
  P  P6927  1  0.13144885  0.98287809  0.55180407  1.0
  P  P6928  1  0.24255996  0.10787809  0.55180407  1.0
  P  P6929  1  0.24255996  0.23287809  0.55180407  1.0
  P  P6930  1  0.24255996  0.35787809  0.55180407  1.0
  P  P6931  1  0.24255996  0.48287809  0.55180407  1.0
  P  P6932  1  0.24255996  0.60787809  0.55180407  1.0
  P  P6933  1  0.24255996  0.73287809  0.55180407  1.0
  P  P6934  1  0.24255996  0.85787809  0.55180407  1.0
  P  P6935  1  0.24255996  0.98287809  0.55180407  1.0
  P  P6936  1  0.35367107  0.10787809  0.55180407  1.0
  P  P6937  1  0.35367107  0.23287809  0.55180407  1.0
  P  P6938  1  0.35367107  0.35787809  0.55180407  1.0
  P  P6939  1  0.35367107  0.48287809  0.55180407  1.0
  P  P6940  1  0.35367107  0.60787809  0.55180407  1.0
  P  P6941  1  0.35367107  0.73287809  0.55180407  1.0
  P  P6942  1  0.35367107  0.85787809  0.55180407  1.0
  P  P6943  1  0.35367107  0.98287809  0.55180407  1.0
  P  P6944  1  0.46478218  0.10787809  0.55180407  1.0
  P  P6945  1  0.46478218  0.23287809  0.55180407  1.0
  P  P6946  1  0.46478218  0.35787809  0.55180407  1.0
  P  P6947  1  0.46478218  0.48287809  0.55180407  1.0
  P  P6948  1  0.46478218  0.60787809  0.55180407  1.0
  P  P6949  1  0.46478218  0.73287809  0.55180407  1.0
  P  P6950  1  0.46478218  0.85787809  0.55180407  1.0
  P  P6951  1  0.46478218  0.98287809  0.55180407  1.0
  P  P6952  1  0.57589330  0.10787809  0.55180407  1.0
  P  P6953  1  0.57589330  0.23287809  0.55180407  1.0
  P  P6954  1  0.57589330  0.35787809  0.55180407  1.0
  P  P6955  1  0.57589330  0.48287809  0.55180407  1.0
  P  P6956  1  0.57589330  0.60787809  0.55180407  1.0
  P  P6957  1  0.57589330  0.73287809  0.55180407  1.0
  P  P6958  1  0.57589330  0.85787809  0.55180407  1.0
  P  P6959  1  0.57589330  0.98287809  0.55180407  1.0
  P  P6960  1  0.68700441  0.10787809  0.55180407  1.0
  P  P6961  1  0.68700441  0.23287809  0.55180407  1.0
  P  P6962  1  0.68700441  0.35787809  0.55180407  1.0
  P  P6963  1  0.68700441  0.48287809  0.55180407  1.0
  P  P6964  1  0.68700441  0.60787809  0.55180407  1.0
  P  P6965  1  0.68700441  0.73287809  0.55180407  1.0
  P  P6966  1  0.68700441  0.85787809  0.55180407  1.0
  P  P6967  1  0.68700441  0.98287809  0.55180407  1.0
  P  P6968  1  0.79811552  0.10787809  0.55180407  1.0
  P  P6969  1  0.79811552  0.23287809  0.55180407  1.0
  P  P6970  1  0.79811552  0.35787809  0.55180407  1.0
  P  P6971  1  0.79811552  0.48287809  0.55180407  1.0
  P  P6972  1  0.79811552  0.60787809  0.55180407  1.0
  P  P6973  1  0.79811552  0.73287809  0.55180407  1.0
  P  P6974  1  0.79811552  0.85787809  0.55180407  1.0
  P  P6975  1  0.79811552  0.98287809  0.55180407  1.0
  P  P6976  1  0.90922663  0.10787809  0.55180407  1.0
  P  P6977  1  0.90922663  0.23287809  0.55180407  1.0
  P  P6978  1  0.90922663  0.35787809  0.55180407  1.0
  P  P6979  1  0.90922663  0.48287809  0.55180407  1.0
  P  P6980  1  0.90922663  0.60787809  0.55180407  1.0
  P  P6981  1  0.90922663  0.73287809  0.55180407  1.0
  P  P6982  1  0.90922663  0.85787809  0.55180407  1.0
  P  P6983  1  0.90922663  0.98287809  0.55180407  1.0
  P  P6984  1  0.10499383  0.10787809  0.50418502  1.0
  P  P6985  1  0.10499383  0.23287809  0.50418502  1.0
  P  P6986  1  0.10499383  0.35787809  0.50418502  1.0
  P  P6987  1  0.10499383  0.48287809  0.50418502  1.0
  P  P6988  1  0.10499383  0.60787809  0.50418502  1.0
  P  P6989  1  0.10499383  0.73287809  0.50418502  1.0
  P  P6990  1  0.10499383  0.85787809  0.50418502  1.0
  P  P6991  1  0.10499383  0.98287809  0.50418502  1.0
  P  P6992  1  0.21610494  0.10787809  0.50418502  1.0
  P  P6993  1  0.21610494  0.23287809  0.50418502  1.0
  P  P6994  1  0.21610494  0.35787809  0.50418502  1.0
  P  P6995  1  0.21610494  0.48287809  0.50418502  1.0
  P  P6996  1  0.21610494  0.60787809  0.50418502  1.0
  P  P6997  1  0.21610494  0.73287809  0.50418502  1.0
  P  P6998  1  0.21610494  0.85787809  0.50418502  1.0
  P  P6999  1  0.21610494  0.98287809  0.50418502  1.0
  P  P7000  1  0.32721605  0.10787809  0.50418502  1.0
  P  P7001  1  0.32721605  0.23287809  0.50418502  1.0
  P  P7002  1  0.32721605  0.35787809  0.50418502  1.0
  P  P7003  1  0.32721605  0.48287809  0.50418502  1.0
  P  P7004  1  0.32721605  0.60787809  0.50418502  1.0
  P  P7005  1  0.32721605  0.73287809  0.50418502  1.0
  P  P7006  1  0.32721605  0.85787809  0.50418502  1.0
  P  P7007  1  0.32721605  0.98287809  0.50418502  1.0
  P  P7008  1  0.43832716  0.10787809  0.50418502  1.0
  P  P7009  1  0.43832716  0.23287809  0.50418502  1.0
  P  P7010  1  0.43832716  0.35787809  0.50418502  1.0
  P  P7011  1  0.43832716  0.48287809  0.50418502  1.0
  P  P7012  1  0.43832716  0.60787809  0.50418502  1.0
  P  P7013  1  0.43832716  0.73287809  0.50418502  1.0
  P  P7014  1  0.43832716  0.85787809  0.50418502  1.0
  P  P7015  1  0.43832716  0.98287809  0.50418502  1.0
  P  P7016  1  0.54943827  0.10787809  0.50418502  1.0
  P  P7017  1  0.54943827  0.23287809  0.50418502  1.0
  P  P7018  1  0.54943827  0.35787809  0.50418502  1.0
  P  P7019  1  0.54943827  0.48287809  0.50418502  1.0
  P  P7020  1  0.54943827  0.60787809  0.50418502  1.0
  P  P7021  1  0.54943827  0.73287809  0.50418502  1.0
  P  P7022  1  0.54943827  0.85787809  0.50418502  1.0
  P  P7023  1  0.54943827  0.98287809  0.50418502  1.0
  P  P7024  1  0.66054938  0.10787809  0.50418502  1.0
  P  P7025  1  0.66054938  0.23287809  0.50418502  1.0
  P  P7026  1  0.66054938  0.35787809  0.50418502  1.0
  P  P7027  1  0.66054938  0.48287809  0.50418502  1.0
  P  P7028  1  0.66054938  0.60787809  0.50418502  1.0
  P  P7029  1  0.66054938  0.73287809  0.50418502  1.0
  P  P7030  1  0.66054938  0.85787809  0.50418502  1.0
  P  P7031  1  0.66054938  0.98287809  0.50418502  1.0
  P  P7032  1  0.77166049  0.10787809  0.50418502  1.0
  P  P7033  1  0.77166049  0.23287809  0.50418502  1.0
  P  P7034  1  0.77166049  0.35787809  0.50418502  1.0
  P  P7035  1  0.77166049  0.48287809  0.50418502  1.0
  P  P7036  1  0.77166049  0.60787809  0.50418502  1.0
  P  P7037  1  0.77166049  0.73287809  0.50418502  1.0
  P  P7038  1  0.77166049  0.85787809  0.50418502  1.0
  P  P7039  1  0.77166049  0.98287809  0.50418502  1.0
  P  P7040  1  0.88277160  0.10787809  0.50418502  1.0
  P  P7041  1  0.88277160  0.23287809  0.50418502  1.0
  P  P7042  1  0.88277160  0.35787809  0.50418502  1.0
  P  P7043  1  0.88277160  0.48287809  0.50418502  1.0
  P  P7044  1  0.88277160  0.60787809  0.50418502  1.0
  P  P7045  1  0.88277160  0.73287809  0.50418502  1.0
  P  P7046  1  0.88277160  0.85787809  0.50418502  1.0
  P  P7047  1  0.88277160  0.98287809  0.50418502  1.0
  P  P7048  1  0.99388271  0.10787809  0.50418502  1.0
  P  P7049  1  0.99388271  0.23287809  0.50418502  1.0
  P  P7050  1  0.99388271  0.35787809  0.50418502  1.0
  P  P7051  1  0.99388271  0.48287809  0.50418502  1.0
  P  P7052  1  0.99388271  0.60787809  0.50418502  1.0
  P  P7053  1  0.99388271  0.73287809  0.50418502  1.0
  P  P7054  1  0.99388271  0.85787809  0.50418502  1.0
  P  P7055  1  0.99388271  0.98287809  0.50418502  1.0
  P  P7056  1  0.04679277  0.10787809  0.59942312  1.0
  P  P7057  1  0.04679277  0.23287809  0.59942312  1.0
  P  P7058  1  0.04679277  0.35787809  0.59942312  1.0
  P  P7059  1  0.04679277  0.48287809  0.59942312  1.0
  P  P7060  1  0.04679277  0.60787809  0.59942312  1.0
  P  P7061  1  0.04679277  0.73287809  0.59942312  1.0
  P  P7062  1  0.04679277  0.85787809  0.59942312  1.0
  P  P7063  1  0.04679277  0.98287809  0.59942312  1.0
  P  P7064  1  0.15790388  0.10787809  0.59942312  1.0
  P  P7065  1  0.15790388  0.23287809  0.59942312  1.0
  P  P7066  1  0.15790388  0.35787809  0.59942312  1.0
  P  P7067  1  0.15790388  0.48287809  0.59942312  1.0
  P  P7068  1  0.15790388  0.60787809  0.59942312  1.0
  P  P7069  1  0.15790388  0.73287809  0.59942312  1.0
  P  P7070  1  0.15790388  0.85787809  0.59942312  1.0
  P  P7071  1  0.15790388  0.98287809  0.59942312  1.0
  P  P7072  1  0.26901499  0.10787809  0.59942312  1.0
  P  P7073  1  0.26901499  0.23287809  0.59942312  1.0
  P  P7074  1  0.26901499  0.35787809  0.59942312  1.0
  P  P7075  1  0.26901499  0.48287809  0.59942312  1.0
  P  P7076  1  0.26901499  0.60787809  0.59942312  1.0
  P  P7077  1  0.26901499  0.73287809  0.59942312  1.0
  P  P7078  1  0.26901499  0.85787809  0.59942312  1.0
  P  P7079  1  0.26901499  0.98287809  0.59942312  1.0
  P  P7080  1  0.38012610  0.10787809  0.59942312  1.0
  P  P7081  1  0.38012610  0.23287809  0.59942312  1.0
  P  P7082  1  0.38012610  0.35787809  0.59942312  1.0
  P  P7083  1  0.38012610  0.48287809  0.59942312  1.0
  P  P7084  1  0.38012610  0.60787809  0.59942312  1.0
  P  P7085  1  0.38012610  0.73287809  0.59942312  1.0
  P  P7086  1  0.38012610  0.85787809  0.59942312  1.0
  P  P7087  1  0.38012610  0.98287809  0.59942312  1.0
  P  P7088  1  0.49123721  0.10787809  0.59942312  1.0
  P  P7089  1  0.49123721  0.23287809  0.59942312  1.0
  P  P7090  1  0.49123721  0.35787809  0.59942312  1.0
  P  P7091  1  0.49123721  0.48287809  0.59942312  1.0
  P  P7092  1  0.49123721  0.60787809  0.59942312  1.0
  P  P7093  1  0.49123721  0.73287809  0.59942312  1.0
  P  P7094  1  0.49123721  0.85787809  0.59942312  1.0
  P  P7095  1  0.49123721  0.98287809  0.59942312  1.0
  P  P7096  1  0.60234832  0.10787809  0.59942312  1.0
  P  P7097  1  0.60234832  0.23287809  0.59942312  1.0
  P  P7098  1  0.60234832  0.35787809  0.59942312  1.0
  P  P7099  1  0.60234832  0.48287809  0.59942312  1.0
  P  P7100  1  0.60234832  0.60787809  0.59942312  1.0
  P  P7101  1  0.60234832  0.73287809  0.59942312  1.0
  P  P7102  1  0.60234832  0.85787809  0.59942312  1.0
  P  P7103  1  0.60234832  0.98287809  0.59942312  1.0
  P  P7104  1  0.71345943  0.10787809  0.59942312  1.0
  P  P7105  1  0.71345943  0.23287809  0.59942312  1.0
  P  P7106  1  0.71345943  0.35787809  0.59942312  1.0
  P  P7107  1  0.71345943  0.48287809  0.59942312  1.0
  P  P7108  1  0.71345943  0.60787809  0.59942312  1.0
  P  P7109  1  0.71345943  0.73287809  0.59942312  1.0
  P  P7110  1  0.71345943  0.85787809  0.59942312  1.0
  P  P7111  1  0.71345943  0.98287809  0.59942312  1.0
  P  P7112  1  0.82457054  0.10787809  0.59942312  1.0
  P  P7113  1  0.82457054  0.23287809  0.59942312  1.0
  P  P7114  1  0.82457054  0.35787809  0.59942312  1.0
  P  P7115  1  0.82457054  0.48287809  0.59942312  1.0
  P  P7116  1  0.82457054  0.60787809  0.59942312  1.0
  P  P7117  1  0.82457054  0.73287809  0.59942312  1.0
  P  P7118  1  0.82457054  0.85787809  0.59942312  1.0
  P  P7119  1  0.82457054  0.98287809  0.59942312  1.0
  P  P7120  1  0.93568166  0.10787809  0.59942312  1.0
  P  P7121  1  0.93568166  0.23287809  0.59942312  1.0
  P  P7122  1  0.93568166  0.35787809  0.59942312  1.0
  P  P7123  1  0.93568166  0.48287809  0.59942312  1.0
  P  P7124  1  0.93568166  0.60787809  0.59942312  1.0
  P  P7125  1  0.93568166  0.73287809  0.59942312  1.0
  P  P7126  1  0.93568166  0.85787809  0.59942312  1.0
  P  P7127  1  0.93568166  0.98287809  0.59942312  1.0
  P  P7128  1  0.02199030  0.01712191  0.51962450  1.0
  P  P7129  1  0.02199030  0.14212191  0.51962450  1.0
  P  P7130  1  0.02199030  0.26712191  0.51962450  1.0
  P  P7131  1  0.02199030  0.39212191  0.51962450  1.0
  P  P7132  1  0.02199030  0.51712191  0.51962450  1.0
  P  P7133  1  0.02199030  0.64212191  0.51962450  1.0
  P  P7134  1  0.02199030  0.76712191  0.51962450  1.0
  P  P7135  1  0.02199030  0.89212191  0.51962450  1.0
  P  P7136  1  0.13310141  0.01712191  0.51962450  1.0
  P  P7137  1  0.13310141  0.14212191  0.51962450  1.0
  P  P7138  1  0.13310141  0.26712191  0.51962450  1.0
  P  P7139  1  0.13310141  0.39212191  0.51962450  1.0
  P  P7140  1  0.13310141  0.51712191  0.51962450  1.0
  P  P7141  1  0.13310141  0.64212191  0.51962450  1.0
  P  P7142  1  0.13310141  0.76712191  0.51962450  1.0
  P  P7143  1  0.13310141  0.89212191  0.51962450  1.0
  P  P7144  1  0.24421252  0.01712191  0.51962450  1.0
  P  P7145  1  0.24421252  0.14212191  0.51962450  1.0
  P  P7146  1  0.24421252  0.26712191  0.51962450  1.0
  P  P7147  1  0.24421252  0.39212191  0.51962450  1.0
  P  P7148  1  0.24421252  0.51712191  0.51962450  1.0
  P  P7149  1  0.24421252  0.64212191  0.51962450  1.0
  P  P7150  1  0.24421252  0.76712191  0.51962450  1.0
  P  P7151  1  0.24421252  0.89212191  0.51962450  1.0
  P  P7152  1  0.35532364  0.01712191  0.51962450  1.0
  P  P7153  1  0.35532364  0.14212191  0.51962450  1.0
  P  P7154  1  0.35532364  0.26712191  0.51962450  1.0
  P  P7155  1  0.35532364  0.39212191  0.51962450  1.0
  P  P7156  1  0.35532364  0.51712191  0.51962450  1.0
  P  P7157  1  0.35532364  0.64212191  0.51962450  1.0
  P  P7158  1  0.35532364  0.76712191  0.51962450  1.0
  P  P7159  1  0.35532364  0.89212191  0.51962450  1.0
  P  P7160  1  0.46643475  0.01712191  0.51962450  1.0
  P  P7161  1  0.46643475  0.14212191  0.51962450  1.0
  P  P7162  1  0.46643475  0.26712191  0.51962450  1.0
  P  P7163  1  0.46643475  0.39212191  0.51962450  1.0
  P  P7164  1  0.46643475  0.51712191  0.51962450  1.0
  P  P7165  1  0.46643475  0.64212191  0.51962450  1.0
  P  P7166  1  0.46643475  0.76712191  0.51962450  1.0
  P  P7167  1  0.46643475  0.89212191  0.51962450  1.0
  P  P7168  1  0.57754586  0.01712191  0.51962450  1.0
  P  P7169  1  0.57754586  0.14212191  0.51962450  1.0
  P  P7170  1  0.57754586  0.26712191  0.51962450  1.0
  P  P7171  1  0.57754586  0.39212191  0.51962450  1.0
  P  P7172  1  0.57754586  0.51712191  0.51962450  1.0
  P  P7173  1  0.57754586  0.64212191  0.51962450  1.0
  P  P7174  1  0.57754586  0.76712191  0.51962450  1.0
  P  P7175  1  0.57754586  0.89212191  0.51962450  1.0
  P  P7176  1  0.68865697  0.01712191  0.51962450  1.0
  P  P7177  1  0.68865697  0.14212191  0.51962450  1.0
  P  P7178  1  0.68865697  0.26712191  0.51962450  1.0
  P  P7179  1  0.68865697  0.39212191  0.51962450  1.0
  P  P7180  1  0.68865697  0.51712191  0.51962450  1.0
  P  P7181  1  0.68865697  0.64212191  0.51962450  1.0
  P  P7182  1  0.68865697  0.76712191  0.51962450  1.0
  P  P7183  1  0.68865697  0.89212191  0.51962450  1.0
  P  P7184  1  0.79976808  0.01712191  0.51962450  1.0
  P  P7185  1  0.79976808  0.14212191  0.51962450  1.0
  P  P7186  1  0.79976808  0.26712191  0.51962450  1.0
  P  P7187  1  0.79976808  0.39212191  0.51962450  1.0
  P  P7188  1  0.79976808  0.51712191  0.51962450  1.0
  P  P7189  1  0.79976808  0.64212191  0.51962450  1.0
  P  P7190  1  0.79976808  0.76712191  0.51962450  1.0
  P  P7191  1  0.79976808  0.89212191  0.51962450  1.0
  P  P7192  1  0.91087919  0.01712191  0.51962450  1.0
  P  P7193  1  0.91087919  0.14212191  0.51962450  1.0
  P  P7194  1  0.91087919  0.26712191  0.51962450  1.0
  P  P7195  1  0.91087919  0.39212191  0.51962450  1.0
  P  P7196  1  0.91087919  0.51712191  0.51962450  1.0
  P  P7197  1  0.91087919  0.64212191  0.51962450  1.0
  P  P7198  1  0.91087919  0.76712191  0.51962450  1.0
  P  P7199  1  0.91087919  0.89212191  0.51962450  1.0
  P  P7200  1  0.07490035  0.01712191  0.61486260  1.0
  P  P7201  1  0.07490035  0.14212191  0.61486260  1.0
  P  P7202  1  0.07490035  0.26712191  0.61486260  1.0
  P  P7203  1  0.07490035  0.39212191  0.61486260  1.0
  P  P7204  1  0.07490035  0.51712191  0.61486260  1.0
  P  P7205  1  0.07490035  0.64212191  0.61486260  1.0
  P  P7206  1  0.07490035  0.76712191  0.61486260  1.0
  P  P7207  1  0.07490035  0.89212191  0.61486260  1.0
  P  P7208  1  0.18601147  0.01712191  0.61486260  1.0
  P  P7209  1  0.18601147  0.14212191  0.61486260  1.0
  P  P7210  1  0.18601147  0.26712191  0.61486260  1.0
  P  P7211  1  0.18601147  0.39212191  0.61486260  1.0
  P  P7212  1  0.18601147  0.51712191  0.61486260  1.0
  P  P7213  1  0.18601147  0.64212191  0.61486260  1.0
  P  P7214  1  0.18601147  0.76712191  0.61486260  1.0
  P  P7215  1  0.18601147  0.89212191  0.61486260  1.0
  P  P7216  1  0.29712258  0.01712191  0.61486260  1.0
  P  P7217  1  0.29712258  0.14212191  0.61486260  1.0
  P  P7218  1  0.29712258  0.26712191  0.61486260  1.0
  P  P7219  1  0.29712258  0.39212191  0.61486260  1.0
  P  P7220  1  0.29712258  0.51712191  0.61486260  1.0
  P  P7221  1  0.29712258  0.64212191  0.61486260  1.0
  P  P7222  1  0.29712258  0.76712191  0.61486260  1.0
  P  P7223  1  0.29712258  0.89212191  0.61486260  1.0
  P  P7224  1  0.40823369  0.01712191  0.61486260  1.0
  P  P7225  1  0.40823369  0.14212191  0.61486260  1.0
  P  P7226  1  0.40823369  0.26712191  0.61486260  1.0
  P  P7227  1  0.40823369  0.39212191  0.61486260  1.0
  P  P7228  1  0.40823369  0.51712191  0.61486260  1.0
  P  P7229  1  0.40823369  0.64212191  0.61486260  1.0
  P  P7230  1  0.40823369  0.76712191  0.61486260  1.0
  P  P7231  1  0.40823369  0.89212191  0.61486260  1.0
  P  P7232  1  0.51934480  0.01712191  0.61486260  1.0
  P  P7233  1  0.51934480  0.14212191  0.61486260  1.0
  P  P7234  1  0.51934480  0.26712191  0.61486260  1.0
  P  P7235  1  0.51934480  0.39212191  0.61486260  1.0
  P  P7236  1  0.51934480  0.51712191  0.61486260  1.0
  P  P7237  1  0.51934480  0.64212191  0.61486260  1.0
  P  P7238  1  0.51934480  0.76712191  0.61486260  1.0
  P  P7239  1  0.51934480  0.89212191  0.61486260  1.0
  P  P7240  1  0.63045591  0.01712191  0.61486260  1.0
  P  P7241  1  0.63045591  0.14212191  0.61486260  1.0
  P  P7242  1  0.63045591  0.26712191  0.61486260  1.0
  P  P7243  1  0.63045591  0.39212191  0.61486260  1.0
  P  P7244  1  0.63045591  0.51712191  0.61486260  1.0
  P  P7245  1  0.63045591  0.64212191  0.61486260  1.0
  P  P7246  1  0.63045591  0.76712191  0.61486260  1.0
  P  P7247  1  0.63045591  0.89212191  0.61486260  1.0
  P  P7248  1  0.74156702  0.01712191  0.61486260  1.0
  P  P7249  1  0.74156702  0.14212191  0.61486260  1.0
  P  P7250  1  0.74156702  0.26712191  0.61486260  1.0
  P  P7251  1  0.74156702  0.39212191  0.61486260  1.0
  P  P7252  1  0.74156702  0.51712191  0.61486260  1.0
  P  P7253  1  0.74156702  0.64212191  0.61486260  1.0
  P  P7254  1  0.74156702  0.76712191  0.61486260  1.0
  P  P7255  1  0.74156702  0.89212191  0.61486260  1.0
  P  P7256  1  0.85267813  0.01712191  0.61486260  1.0
  P  P7257  1  0.85267813  0.14212191  0.61486260  1.0
  P  P7258  1  0.85267813  0.26712191  0.61486260  1.0
  P  P7259  1  0.85267813  0.39212191  0.61486260  1.0
  P  P7260  1  0.85267813  0.51712191  0.61486260  1.0
  P  P7261  1  0.85267813  0.64212191  0.61486260  1.0
  P  P7262  1  0.85267813  0.76712191  0.61486260  1.0
  P  P7263  1  0.85267813  0.89212191  0.61486260  1.0
  P  P7264  1  0.96378924  0.01712191  0.61486260  1.0
  P  P7265  1  0.96378924  0.14212191  0.61486260  1.0
  P  P7266  1  0.96378924  0.26712191  0.61486260  1.0
  P  P7267  1  0.96378924  0.39212191  0.61486260  1.0
  P  P7268  1  0.96378924  0.51712191  0.61486260  1.0
  P  P7269  1  0.96378924  0.64212191  0.61486260  1.0
  P  P7270  1  0.96378924  0.76712191  0.61486260  1.0
  P  P7271  1  0.96378924  0.89212191  0.61486260  1.0
  P  P7272  1  0.04844533  0.01712191  0.56724355  1.0
  P  P7273  1  0.04844533  0.14212191  0.56724355  1.0
  P  P7274  1  0.04844533  0.26712191  0.56724355  1.0
  P  P7275  1  0.04844533  0.39212191  0.56724355  1.0
  P  P7276  1  0.04844533  0.51712191  0.56724355  1.0
  P  P7277  1  0.04844533  0.64212191  0.56724355  1.0
  P  P7278  1  0.04844533  0.76712191  0.56724355  1.0
  P  P7279  1  0.04844533  0.89212191  0.56724355  1.0
  P  P7280  1  0.15955644  0.01712191  0.56724355  1.0
  P  P7281  1  0.15955644  0.14212191  0.56724355  1.0
  P  P7282  1  0.15955644  0.26712191  0.56724355  1.0
  P  P7283  1  0.15955644  0.39212191  0.56724355  1.0
  P  P7284  1  0.15955644  0.51712191  0.56724355  1.0
  P  P7285  1  0.15955644  0.64212191  0.56724355  1.0
  P  P7286  1  0.15955644  0.76712191  0.56724355  1.0
  P  P7287  1  0.15955644  0.89212191  0.56724355  1.0
  P  P7288  1  0.27066755  0.01712191  0.56724355  1.0
  P  P7289  1  0.27066755  0.14212191  0.56724355  1.0
  P  P7290  1  0.27066755  0.26712191  0.56724355  1.0
  P  P7291  1  0.27066755  0.39212191  0.56724355  1.0
  P  P7292  1  0.27066755  0.51712191  0.56724355  1.0
  P  P7293  1  0.27066755  0.64212191  0.56724355  1.0
  P  P7294  1  0.27066755  0.76712191  0.56724355  1.0
  P  P7295  1  0.27066755  0.89212191  0.56724355  1.0
  P  P7296  1  0.38177866  0.01712191  0.56724355  1.0
  P  P7297  1  0.38177866  0.14212191  0.56724355  1.0
  P  P7298  1  0.38177866  0.26712191  0.56724355  1.0
  P  P7299  1  0.38177866  0.39212191  0.56724355  1.0
  P  P7300  1  0.38177866  0.51712191  0.56724355  1.0
  P  P7301  1  0.38177866  0.64212191  0.56724355  1.0
  P  P7302  1  0.38177866  0.76712191  0.56724355  1.0
  P  P7303  1  0.38177866  0.89212191  0.56724355  1.0
  P  P7304  1  0.49288977  0.01712191  0.56724355  1.0
  P  P7305  1  0.49288977  0.14212191  0.56724355  1.0
  P  P7306  1  0.49288977  0.26712191  0.56724355  1.0
  P  P7307  1  0.49288977  0.39212191  0.56724355  1.0
  P  P7308  1  0.49288977  0.51712191  0.56724355  1.0
  P  P7309  1  0.49288977  0.64212191  0.56724355  1.0
  P  P7310  1  0.49288977  0.76712191  0.56724355  1.0
  P  P7311  1  0.49288977  0.89212191  0.56724355  1.0
  P  P7312  1  0.60400088  0.01712191  0.56724355  1.0
  P  P7313  1  0.60400088  0.14212191  0.56724355  1.0
  P  P7314  1  0.60400088  0.26712191  0.56724355  1.0
  P  P7315  1  0.60400088  0.39212191  0.56724355  1.0
  P  P7316  1  0.60400088  0.51712191  0.56724355  1.0
  P  P7317  1  0.60400088  0.64212191  0.56724355  1.0
  P  P7318  1  0.60400088  0.76712191  0.56724355  1.0
  P  P7319  1  0.60400088  0.89212191  0.56724355  1.0
  P  P7320  1  0.71511199  0.01712191  0.56724355  1.0
  P  P7321  1  0.71511199  0.14212191  0.56724355  1.0
  P  P7322  1  0.71511199  0.26712191  0.56724355  1.0
  P  P7323  1  0.71511199  0.39212191  0.56724355  1.0
  P  P7324  1  0.71511199  0.51712191  0.56724355  1.0
  P  P7325  1  0.71511199  0.64212191  0.56724355  1.0
  P  P7326  1  0.71511199  0.76712191  0.56724355  1.0
  P  P7327  1  0.71511199  0.89212191  0.56724355  1.0
  P  P7328  1  0.82622311  0.01712191  0.56724355  1.0
  P  P7329  1  0.82622311  0.14212191  0.56724355  1.0
  P  P7330  1  0.82622311  0.26712191  0.56724355  1.0
  P  P7331  1  0.82622311  0.39212191  0.56724355  1.0
  P  P7332  1  0.82622311  0.51712191  0.56724355  1.0
  P  P7333  1  0.82622311  0.64212191  0.56724355  1.0
  P  P7334  1  0.82622311  0.76712191  0.56724355  1.0
  P  P7335  1  0.82622311  0.89212191  0.56724355  1.0
  P  P7336  1  0.93733422  0.01712191  0.56724355  1.0
  P  P7337  1  0.93733422  0.14212191  0.56724355  1.0
  P  P7338  1  0.93733422  0.26712191  0.56724355  1.0
  P  P7339  1  0.93733422  0.39212191  0.56724355  1.0
  P  P7340  1  0.93733422  0.51712191  0.56724355  1.0
  P  P7341  1  0.93733422  0.64212191  0.56724355  1.0
  P  P7342  1  0.93733422  0.76712191  0.56724355  1.0
  P  P7343  1  0.93733422  0.89212191  0.56724355  1.0
  P  P7344  1  0.06266578  0.07962191  0.52799454  1.0
  P  P7345  1  0.06266578  0.20462191  0.52799454  1.0
  P  P7346  1  0.06266578  0.32962191  0.52799454  1.0
  P  P7347  1  0.06266578  0.45462191  0.52799454  1.0
  P  P7348  1  0.06266578  0.57962191  0.52799454  1.0
  P  P7349  1  0.06266578  0.70462191  0.52799454  1.0
  P  P7350  1  0.06266578  0.82962191  0.52799454  1.0
  P  P7351  1  0.06266578  0.95462191  0.52799454  1.0
  P  P7352  1  0.17377689  0.07962191  0.52799454  1.0
  P  P7353  1  0.17377689  0.20462191  0.52799454  1.0
  P  P7354  1  0.17377689  0.32962191  0.52799454  1.0
  P  P7355  1  0.17377689  0.45462191  0.52799454  1.0
  P  P7356  1  0.17377689  0.57962191  0.52799454  1.0
  P  P7357  1  0.17377689  0.70462191  0.52799454  1.0
  P  P7358  1  0.17377689  0.82962191  0.52799454  1.0
  P  P7359  1  0.17377689  0.95462191  0.52799454  1.0
  P  P7360  1  0.28488801  0.07962191  0.52799454  1.0
  P  P7361  1  0.28488801  0.20462191  0.52799454  1.0
  P  P7362  1  0.28488801  0.32962191  0.52799454  1.0
  P  P7363  1  0.28488801  0.45462191  0.52799454  1.0
  P  P7364  1  0.28488801  0.57962191  0.52799454  1.0
  P  P7365  1  0.28488801  0.70462191  0.52799454  1.0
  P  P7366  1  0.28488801  0.82962191  0.52799454  1.0
  P  P7367  1  0.28488801  0.95462191  0.52799454  1.0
  P  P7368  1  0.39599912  0.07962191  0.52799454  1.0
  P  P7369  1  0.39599912  0.20462191  0.52799454  1.0
  P  P7370  1  0.39599912  0.32962191  0.52799454  1.0
  P  P7371  1  0.39599912  0.45462191  0.52799454  1.0
  P  P7372  1  0.39599912  0.57962191  0.52799454  1.0
  P  P7373  1  0.39599912  0.70462191  0.52799454  1.0
  P  P7374  1  0.39599912  0.82962191  0.52799454  1.0
  P  P7375  1  0.39599912  0.95462191  0.52799454  1.0
  P  P7376  1  0.50711023  0.07962191  0.52799454  1.0
  P  P7377  1  0.50711023  0.20462191  0.52799454  1.0
  P  P7378  1  0.50711023  0.32962191  0.52799454  1.0
  P  P7379  1  0.50711023  0.45462191  0.52799454  1.0
  P  P7380  1  0.50711023  0.57962191  0.52799454  1.0
  P  P7381  1  0.50711023  0.70462191  0.52799454  1.0
  P  P7382  1  0.50711023  0.82962191  0.52799454  1.0
  P  P7383  1  0.50711023  0.95462191  0.52799454  1.0
  P  P7384  1  0.61822134  0.07962191  0.52799454  1.0
  P  P7385  1  0.61822134  0.20462191  0.52799454  1.0
  P  P7386  1  0.61822134  0.32962191  0.52799454  1.0
  P  P7387  1  0.61822134  0.45462191  0.52799454  1.0
  P  P7388  1  0.61822134  0.57962191  0.52799454  1.0
  P  P7389  1  0.61822134  0.70462191  0.52799454  1.0
  P  P7390  1  0.61822134  0.82962191  0.52799454  1.0
  P  P7391  1  0.61822134  0.95462191  0.52799454  1.0
  P  P7392  1  0.72933245  0.07962191  0.52799454  1.0
  P  P7393  1  0.72933245  0.20462191  0.52799454  1.0
  P  P7394  1  0.72933245  0.32962191  0.52799454  1.0
  P  P7395  1  0.72933245  0.45462191  0.52799454  1.0
  P  P7396  1  0.72933245  0.57962191  0.52799454  1.0
  P  P7397  1  0.72933245  0.70462191  0.52799454  1.0
  P  P7398  1  0.72933245  0.82962191  0.52799454  1.0
  P  P7399  1  0.72933245  0.95462191  0.52799454  1.0
  P  P7400  1  0.84044356  0.07962191  0.52799454  1.0
  P  P7401  1  0.84044356  0.20462191  0.52799454  1.0
  P  P7402  1  0.84044356  0.32962191  0.52799454  1.0
  P  P7403  1  0.84044356  0.45462191  0.52799454  1.0
  P  P7404  1  0.84044356  0.57962191  0.52799454  1.0
  P  P7405  1  0.84044356  0.70462191  0.52799454  1.0
  P  P7406  1  0.84044356  0.82962191  0.52799454  1.0
  P  P7407  1  0.84044356  0.95462191  0.52799454  1.0
  P  P7408  1  0.95155467  0.07962191  0.52799454  1.0
  P  P7409  1  0.95155467  0.20462191  0.52799454  1.0
  P  P7410  1  0.95155467  0.32962191  0.52799454  1.0
  P  P7411  1  0.95155467  0.45462191  0.52799454  1.0
  P  P7412  1  0.95155467  0.57962191  0.52799454  1.0
  P  P7413  1  0.95155467  0.70462191  0.52799454  1.0
  P  P7414  1  0.95155467  0.82962191  0.52799454  1.0
  P  P7415  1  0.95155467  0.95462191  0.52799454  1.0
  P  P7416  1  0.00446472  0.07962191  0.62323264  1.0
  P  P7417  1  0.00446472  0.20462191  0.62323264  1.0
  P  P7418  1  0.00446472  0.32962191  0.62323264  1.0
  P  P7419  1  0.00446472  0.45462191  0.62323264  1.0
  P  P7420  1  0.00446472  0.57962191  0.62323264  1.0
  P  P7421  1  0.00446472  0.70462191  0.62323264  1.0
  P  P7422  1  0.00446472  0.82962191  0.62323264  1.0
  P  P7423  1  0.00446472  0.95462191  0.62323264  1.0
  P  P7424  1  0.11557584  0.07962191  0.62323264  1.0
  P  P7425  1  0.11557584  0.20462191  0.62323264  1.0
  P  P7426  1  0.11557584  0.32962191  0.62323264  1.0
  P  P7427  1  0.11557584  0.45462191  0.62323264  1.0
  P  P7428  1  0.11557584  0.57962191  0.62323264  1.0
  P  P7429  1  0.11557584  0.70462191  0.62323264  1.0
  P  P7430  1  0.11557584  0.82962191  0.62323264  1.0
  P  P7431  1  0.11557584  0.95462191  0.62323264  1.0
  P  P7432  1  0.22668695  0.07962191  0.62323264  1.0
  P  P7433  1  0.22668695  0.20462191  0.62323264  1.0
  P  P7434  1  0.22668695  0.32962191  0.62323264  1.0
  P  P7435  1  0.22668695  0.45462191  0.62323264  1.0
  P  P7436  1  0.22668695  0.57962191  0.62323264  1.0
  P  P7437  1  0.22668695  0.70462191  0.62323264  1.0
  P  P7438  1  0.22668695  0.82962191  0.62323264  1.0
  P  P7439  1  0.22668695  0.95462191  0.62323264  1.0
  P  P7440  1  0.33779806  0.07962191  0.62323264  1.0
  P  P7441  1  0.33779806  0.20462191  0.62323264  1.0
  P  P7442  1  0.33779806  0.32962191  0.62323264  1.0
  P  P7443  1  0.33779806  0.45462191  0.62323264  1.0
  P  P7444  1  0.33779806  0.57962191  0.62323264  1.0
  P  P7445  1  0.33779806  0.70462191  0.62323264  1.0
  P  P7446  1  0.33779806  0.82962191  0.62323264  1.0
  P  P7447  1  0.33779806  0.95462191  0.62323264  1.0
  P  P7448  1  0.44890917  0.07962191  0.62323264  1.0
  P  P7449  1  0.44890917  0.20462191  0.62323264  1.0
  P  P7450  1  0.44890917  0.32962191  0.62323264  1.0
  P  P7451  1  0.44890917  0.45462191  0.62323264  1.0
  P  P7452  1  0.44890917  0.57962191  0.62323264  1.0
  P  P7453  1  0.44890917  0.70462191  0.62323264  1.0
  P  P7454  1  0.44890917  0.82962191  0.62323264  1.0
  P  P7455  1  0.44890917  0.95462191  0.62323264  1.0
  P  P7456  1  0.56002028  0.07962191  0.62323264  1.0
  P  P7457  1  0.56002028  0.20462191  0.62323264  1.0
  P  P7458  1  0.56002028  0.32962191  0.62323264  1.0
  P  P7459  1  0.56002028  0.45462191  0.62323264  1.0
  P  P7460  1  0.56002028  0.57962191  0.62323264  1.0
  P  P7461  1  0.56002028  0.70462191  0.62323264  1.0
  P  P7462  1  0.56002028  0.82962191  0.62323264  1.0
  P  P7463  1  0.56002028  0.95462191  0.62323264  1.0
  P  P7464  1  0.67113139  0.07962191  0.62323264  1.0
  P  P7465  1  0.67113139  0.20462191  0.62323264  1.0
  P  P7466  1  0.67113139  0.32962191  0.62323264  1.0
  P  P7467  1  0.67113139  0.45462191  0.62323264  1.0
  P  P7468  1  0.67113139  0.57962191  0.62323264  1.0
  P  P7469  1  0.67113139  0.70462191  0.62323264  1.0
  P  P7470  1  0.67113139  0.82962191  0.62323264  1.0
  P  P7471  1  0.67113139  0.95462191  0.62323264  1.0
  P  P7472  1  0.78224250  0.07962191  0.62323264  1.0
  P  P7473  1  0.78224250  0.20462191  0.62323264  1.0
  P  P7474  1  0.78224250  0.32962191  0.62323264  1.0
  P  P7475  1  0.78224250  0.45462191  0.62323264  1.0
  P  P7476  1  0.78224250  0.57962191  0.62323264  1.0
  P  P7477  1  0.78224250  0.70462191  0.62323264  1.0
  P  P7478  1  0.78224250  0.82962191  0.62323264  1.0
  P  P7479  1  0.78224250  0.95462191  0.62323264  1.0
  P  P7480  1  0.89335361  0.07962191  0.62323264  1.0
  P  P7481  1  0.89335361  0.20462191  0.62323264  1.0
  P  P7482  1  0.89335361  0.32962191  0.62323264  1.0
  P  P7483  1  0.89335361  0.45462191  0.62323264  1.0
  P  P7484  1  0.89335361  0.57962191  0.62323264  1.0
  P  P7485  1  0.89335361  0.70462191  0.62323264  1.0
  P  P7486  1  0.89335361  0.82962191  0.62323264  1.0
  P  P7487  1  0.89335361  0.95462191  0.62323264  1.0
  P  P7488  1  0.08912081  0.07962191  0.57561359  1.0
  P  P7489  1  0.08912081  0.20462191  0.57561359  1.0
  P  P7490  1  0.08912081  0.32962191  0.57561359  1.0
  P  P7491  1  0.08912081  0.45462191  0.57561359  1.0
  P  P7492  1  0.08912081  0.57962191  0.57561359  1.0
  P  P7493  1  0.08912081  0.70462191  0.57561359  1.0
  P  P7494  1  0.08912081  0.82962191  0.57561359  1.0
  P  P7495  1  0.08912081  0.95462191  0.57561359  1.0
  P  P7496  1  0.20023192  0.07962191  0.57561359  1.0
  P  P7497  1  0.20023192  0.20462191  0.57561359  1.0
  P  P7498  1  0.20023192  0.32962191  0.57561359  1.0
  P  P7499  1  0.20023192  0.45462191  0.57561359  1.0
  P  P7500  1  0.20023192  0.57962191  0.57561359  1.0
  P  P7501  1  0.20023192  0.70462191  0.57561359  1.0
  P  P7502  1  0.20023192  0.82962191  0.57561359  1.0
  P  P7503  1  0.20023192  0.95462191  0.57561359  1.0
  P  P7504  1  0.31134303  0.07962191  0.57561359  1.0
  P  P7505  1  0.31134303  0.20462191  0.57561359  1.0
  P  P7506  1  0.31134303  0.32962191  0.57561359  1.0
  P  P7507  1  0.31134303  0.45462191  0.57561359  1.0
  P  P7508  1  0.31134303  0.57962191  0.57561359  1.0
  P  P7509  1  0.31134303  0.70462191  0.57561359  1.0
  P  P7510  1  0.31134303  0.82962191  0.57561359  1.0
  P  P7511  1  0.31134303  0.95462191  0.57561359  1.0
  P  P7512  1  0.42245414  0.07962191  0.57561359  1.0
  P  P7513  1  0.42245414  0.20462191  0.57561359  1.0
  P  P7514  1  0.42245414  0.32962191  0.57561359  1.0
  P  P7515  1  0.42245414  0.45462191  0.57561359  1.0
  P  P7516  1  0.42245414  0.57962191  0.57561359  1.0
  P  P7517  1  0.42245414  0.70462191  0.57561359  1.0
  P  P7518  1  0.42245414  0.82962191  0.57561359  1.0
  P  P7519  1  0.42245414  0.95462191  0.57561359  1.0
  P  P7520  1  0.53356525  0.07962191  0.57561359  1.0
  P  P7521  1  0.53356525  0.20462191  0.57561359  1.0
  P  P7522  1  0.53356525  0.32962191  0.57561359  1.0
  P  P7523  1  0.53356525  0.45462191  0.57561359  1.0
  P  P7524  1  0.53356525  0.57962191  0.57561359  1.0
  P  P7525  1  0.53356525  0.70462191  0.57561359  1.0
  P  P7526  1  0.53356525  0.82962191  0.57561359  1.0
  P  P7527  1  0.53356525  0.95462191  0.57561359  1.0
  P  P7528  1  0.64467636  0.07962191  0.57561359  1.0
  P  P7529  1  0.64467636  0.20462191  0.57561359  1.0
  P  P7530  1  0.64467636  0.32962191  0.57561359  1.0
  P  P7531  1  0.64467636  0.45462191  0.57561359  1.0
  P  P7532  1  0.64467636  0.57962191  0.57561359  1.0
  P  P7533  1  0.64467636  0.70462191  0.57561359  1.0
  P  P7534  1  0.64467636  0.82962191  0.57561359  1.0
  P  P7535  1  0.64467636  0.95462191  0.57561359  1.0
  P  P7536  1  0.75578748  0.07962191  0.57561359  1.0
  P  P7537  1  0.75578748  0.20462191  0.57561359  1.0
  P  P7538  1  0.75578748  0.32962191  0.57561359  1.0
  P  P7539  1  0.75578748  0.45462191  0.57561359  1.0
  P  P7540  1  0.75578748  0.57962191  0.57561359  1.0
  P  P7541  1  0.75578748  0.70462191  0.57561359  1.0
  P  P7542  1  0.75578748  0.82962191  0.57561359  1.0
  P  P7543  1  0.75578748  0.95462191  0.57561359  1.0
  P  P7544  1  0.86689859  0.07962191  0.57561359  1.0
  P  P7545  1  0.86689859  0.20462191  0.57561359  1.0
  P  P7546  1  0.86689859  0.32962191  0.57561359  1.0
  P  P7547  1  0.86689859  0.45462191  0.57561359  1.0
  P  P7548  1  0.86689859  0.57962191  0.57561359  1.0
  P  P7549  1  0.86689859  0.70462191  0.57561359  1.0
  P  P7550  1  0.86689859  0.82962191  0.57561359  1.0
  P  P7551  1  0.86689859  0.95462191  0.57561359  1.0
  P  P7552  1  0.97800970  0.07962191  0.57561359  1.0
  P  P7553  1  0.97800970  0.20462191  0.57561359  1.0
  P  P7554  1  0.97800970  0.32962191  0.57561359  1.0
  P  P7555  1  0.97800970  0.45462191  0.57561359  1.0
  P  P7556  1  0.97800970  0.57962191  0.57561359  1.0
  P  P7557  1  0.97800970  0.70462191  0.57561359  1.0
  P  P7558  1  0.97800970  0.82962191  0.57561359  1.0
  P  P7559  1  0.97800970  0.95462191  0.57561359  1.0
  P  P7560  1  0.09077337  0.04537809  0.54343403  1.0
  P  P7561  1  0.09077337  0.17037809  0.54343403  1.0
  P  P7562  1  0.09077337  0.29537809  0.54343403  1.0
  P  P7563  1  0.09077337  0.42037809  0.54343403  1.0
  P  P7564  1  0.09077337  0.54537809  0.54343403  1.0
  P  P7565  1  0.09077337  0.67037809  0.54343403  1.0
  P  P7566  1  0.09077337  0.79537809  0.54343403  1.0
  P  P7567  1  0.09077337  0.92037809  0.54343403  1.0
  P  P7568  1  0.20188448  0.04537809  0.54343403  1.0
  P  P7569  1  0.20188448  0.17037809  0.54343403  1.0
  P  P7570  1  0.20188448  0.29537809  0.54343403  1.0
  P  P7571  1  0.20188448  0.42037809  0.54343403  1.0
  P  P7572  1  0.20188448  0.54537809  0.54343403  1.0
  P  P7573  1  0.20188448  0.67037809  0.54343403  1.0
  P  P7574  1  0.20188448  0.79537809  0.54343403  1.0
  P  P7575  1  0.20188448  0.92037809  0.54343403  1.0
  P  P7576  1  0.31299559  0.04537809  0.54343403  1.0
  P  P7577  1  0.31299559  0.17037809  0.54343403  1.0
  P  P7578  1  0.31299559  0.29537809  0.54343403  1.0
  P  P7579  1  0.31299559  0.42037809  0.54343403  1.0
  P  P7580  1  0.31299559  0.54537809  0.54343403  1.0
  P  P7581  1  0.31299559  0.67037809  0.54343403  1.0
  P  P7582  1  0.31299559  0.79537809  0.54343403  1.0
  P  P7583  1  0.31299559  0.92037809  0.54343403  1.0
  P  P7584  1  0.42410670  0.04537809  0.54343403  1.0
  P  P7585  1  0.42410670  0.17037809  0.54343403  1.0
  P  P7586  1  0.42410670  0.29537809  0.54343403  1.0
  P  P7587  1  0.42410670  0.42037809  0.54343403  1.0
  P  P7588  1  0.42410670  0.54537809  0.54343403  1.0
  P  P7589  1  0.42410670  0.67037809  0.54343403  1.0
  P  P7590  1  0.42410670  0.79537809  0.54343403  1.0
  P  P7591  1  0.42410670  0.92037809  0.54343403  1.0
  P  P7592  1  0.53521782  0.04537809  0.54343403  1.0
  P  P7593  1  0.53521782  0.17037809  0.54343403  1.0
  P  P7594  1  0.53521782  0.29537809  0.54343403  1.0
  P  P7595  1  0.53521782  0.42037809  0.54343403  1.0
  P  P7596  1  0.53521782  0.54537809  0.54343403  1.0
  P  P7597  1  0.53521782  0.67037809  0.54343403  1.0
  P  P7598  1  0.53521782  0.79537809  0.54343403  1.0
  P  P7599  1  0.53521782  0.92037809  0.54343403  1.0
  P  P7600  1  0.64632893  0.04537809  0.54343403  1.0
  P  P7601  1  0.64632893  0.17037809  0.54343403  1.0
  P  P7602  1  0.64632893  0.29537809  0.54343403  1.0
  P  P7603  1  0.64632893  0.42037809  0.54343403  1.0
  P  P7604  1  0.64632893  0.54537809  0.54343403  1.0
  P  P7605  1  0.64632893  0.67037809  0.54343403  1.0
  P  P7606  1  0.64632893  0.79537809  0.54343403  1.0
  P  P7607  1  0.64632893  0.92037809  0.54343403  1.0
  P  P7608  1  0.75744004  0.04537809  0.54343403  1.0
  P  P7609  1  0.75744004  0.17037809  0.54343403  1.0
  P  P7610  1  0.75744004  0.29537809  0.54343403  1.0
  P  P7611  1  0.75744004  0.42037809  0.54343403  1.0
  P  P7612  1  0.75744004  0.54537809  0.54343403  1.0
  P  P7613  1  0.75744004  0.67037809  0.54343403  1.0
  P  P7614  1  0.75744004  0.79537809  0.54343403  1.0
  P  P7615  1  0.75744004  0.92037809  0.54343403  1.0
  P  P7616  1  0.86855115  0.04537809  0.54343403  1.0
  P  P7617  1  0.86855115  0.17037809  0.54343403  1.0
  P  P7618  1  0.86855115  0.29537809  0.54343403  1.0
  P  P7619  1  0.86855115  0.42037809  0.54343403  1.0
  P  P7620  1  0.86855115  0.54537809  0.54343403  1.0
  P  P7621  1  0.86855115  0.67037809  0.54343403  1.0
  P  P7622  1  0.86855115  0.79537809  0.54343403  1.0
  P  P7623  1  0.86855115  0.92037809  0.54343403  1.0
  P  P7624  1  0.97966226  0.04537809  0.54343403  1.0
  P  P7625  1  0.97966226  0.17037809  0.54343403  1.0
  P  P7626  1  0.97966226  0.29537809  0.54343403  1.0
  P  P7627  1  0.97966226  0.42037809  0.54343403  1.0
  P  P7628  1  0.97966226  0.54537809  0.54343403  1.0
  P  P7629  1  0.97966226  0.67037809  0.54343403  1.0
  P  P7630  1  0.97966226  0.79537809  0.54343403  1.0
  P  P7631  1  0.97966226  0.92037809  0.54343403  1.0
  P  P7632  1  0.03257231  0.04537809  0.63867212  1.0
  P  P7633  1  0.03257231  0.17037809  0.63867212  1.0
  P  P7634  1  0.03257231  0.29537809  0.63867212  1.0
  P  P7635  1  0.03257231  0.42037809  0.63867212  1.0
  P  P7636  1  0.03257231  0.54537809  0.63867212  1.0
  P  P7637  1  0.03257231  0.67037809  0.63867212  1.0
  P  P7638  1  0.03257231  0.79537809  0.63867212  1.0
  P  P7639  1  0.03257231  0.92037809  0.63867212  1.0
  P  P7640  1  0.14368342  0.04537809  0.63867212  1.0
  P  P7641  1  0.14368342  0.17037809  0.63867212  1.0
  P  P7642  1  0.14368342  0.29537809  0.63867212  1.0
  P  P7643  1  0.14368342  0.42037809  0.63867212  1.0
  P  P7644  1  0.14368342  0.54537809  0.63867212  1.0
  P  P7645  1  0.14368342  0.67037809  0.63867212  1.0
  P  P7646  1  0.14368342  0.79537809  0.63867212  1.0
  P  P7647  1  0.14368342  0.92037809  0.63867212  1.0
  P  P7648  1  0.25479453  0.04537809  0.63867212  1.0
  P  P7649  1  0.25479453  0.17037809  0.63867212  1.0
  P  P7650  1  0.25479453  0.29537809  0.63867212  1.0
  P  P7651  1  0.25479453  0.42037809  0.63867212  1.0
  P  P7652  1  0.25479453  0.54537809  0.63867212  1.0
  P  P7653  1  0.25479453  0.67037809  0.63867212  1.0
  P  P7654  1  0.25479453  0.79537809  0.63867212  1.0
  P  P7655  1  0.25479453  0.92037809  0.63867212  1.0
  P  P7656  1  0.36590565  0.04537809  0.63867212  1.0
  P  P7657  1  0.36590565  0.17037809  0.63867212  1.0
  P  P7658  1  0.36590565  0.29537809  0.63867212  1.0
  P  P7659  1  0.36590565  0.42037809  0.63867212  1.0
  P  P7660  1  0.36590565  0.54537809  0.63867212  1.0
  P  P7661  1  0.36590565  0.67037809  0.63867212  1.0
  P  P7662  1  0.36590565  0.79537809  0.63867212  1.0
  P  P7663  1  0.36590565  0.92037809  0.63867212  1.0
  P  P7664  1  0.47701676  0.04537809  0.63867212  1.0
  P  P7665  1  0.47701676  0.17037809  0.63867212  1.0
  P  P7666  1  0.47701676  0.29537809  0.63867212  1.0
  P  P7667  1  0.47701676  0.42037809  0.63867212  1.0
  P  P7668  1  0.47701676  0.54537809  0.63867212  1.0
  P  P7669  1  0.47701676  0.67037809  0.63867212  1.0
  P  P7670  1  0.47701676  0.79537809  0.63867212  1.0
  P  P7671  1  0.47701676  0.92037809  0.63867212  1.0
  P  P7672  1  0.58812787  0.04537809  0.63867212  1.0
  P  P7673  1  0.58812787  0.17037809  0.63867212  1.0
  P  P7674  1  0.58812787  0.29537809  0.63867212  1.0
  P  P7675  1  0.58812787  0.42037809  0.63867212  1.0
  P  P7676  1  0.58812787  0.54537809  0.63867212  1.0
  P  P7677  1  0.58812787  0.67037809  0.63867212  1.0
  P  P7678  1  0.58812787  0.79537809  0.63867212  1.0
  P  P7679  1  0.58812787  0.92037809  0.63867212  1.0
  P  P7680  1  0.69923898  0.04537809  0.63867212  1.0
  P  P7681  1  0.69923898  0.17037809  0.63867212  1.0
  P  P7682  1  0.69923898  0.29537809  0.63867212  1.0
  P  P7683  1  0.69923898  0.42037809  0.63867212  1.0
  P  P7684  1  0.69923898  0.54537809  0.63867212  1.0
  P  P7685  1  0.69923898  0.67037809  0.63867212  1.0
  P  P7686  1  0.69923898  0.79537809  0.63867212  1.0
  P  P7687  1  0.69923898  0.92037809  0.63867212  1.0
  P  P7688  1  0.81035009  0.04537809  0.63867212  1.0
  P  P7689  1  0.81035009  0.17037809  0.63867212  1.0
  P  P7690  1  0.81035009  0.29537809  0.63867212  1.0
  P  P7691  1  0.81035009  0.42037809  0.63867212  1.0
  P  P7692  1  0.81035009  0.54537809  0.63867212  1.0
  P  P7693  1  0.81035009  0.67037809  0.63867212  1.0
  P  P7694  1  0.81035009  0.79537809  0.63867212  1.0
  P  P7695  1  0.81035009  0.92037809  0.63867212  1.0
  P  P7696  1  0.92146120  0.04537809  0.63867212  1.0
  P  P7697  1  0.92146120  0.17037809  0.63867212  1.0
  P  P7698  1  0.92146120  0.29537809  0.63867212  1.0
  P  P7699  1  0.92146120  0.42037809  0.63867212  1.0
  P  P7700  1  0.92146120  0.54537809  0.63867212  1.0
  P  P7701  1  0.92146120  0.67037809  0.63867212  1.0
  P  P7702  1  0.92146120  0.79537809  0.63867212  1.0
  P  P7703  1  0.92146120  0.92037809  0.63867212  1.0
  P  P7704  1  0.00611729  0.04537809  0.59105307  1.0
  P  P7705  1  0.00611729  0.17037809  0.59105307  1.0
  P  P7706  1  0.00611729  0.29537809  0.59105307  1.0
  P  P7707  1  0.00611729  0.42037809  0.59105307  1.0
  P  P7708  1  0.00611729  0.54537809  0.59105307  1.0
  P  P7709  1  0.00611729  0.67037809  0.59105307  1.0
  P  P7710  1  0.00611729  0.79537809  0.59105307  1.0
  P  P7711  1  0.00611729  0.92037809  0.59105307  1.0
  P  P7712  1  0.11722840  0.04537809  0.59105307  1.0
  P  P7713  1  0.11722840  0.17037809  0.59105307  1.0
  P  P7714  1  0.11722840  0.29537809  0.59105307  1.0
  P  P7715  1  0.11722840  0.42037809  0.59105307  1.0
  P  P7716  1  0.11722840  0.54537809  0.59105307  1.0
  P  P7717  1  0.11722840  0.67037809  0.59105307  1.0
  P  P7718  1  0.11722840  0.79537809  0.59105307  1.0
  P  P7719  1  0.11722840  0.92037809  0.59105307  1.0
  P  P7720  1  0.22833951  0.04537809  0.59105307  1.0
  P  P7721  1  0.22833951  0.17037809  0.59105307  1.0
  P  P7722  1  0.22833951  0.29537809  0.59105307  1.0
  P  P7723  1  0.22833951  0.42037809  0.59105307  1.0
  P  P7724  1  0.22833951  0.54537809  0.59105307  1.0
  P  P7725  1  0.22833951  0.67037809  0.59105307  1.0
  P  P7726  1  0.22833951  0.79537809  0.59105307  1.0
  P  P7727  1  0.22833951  0.92037809  0.59105307  1.0
  P  P7728  1  0.33945062  0.04537809  0.59105307  1.0
  P  P7729  1  0.33945062  0.17037809  0.59105307  1.0
  P  P7730  1  0.33945062  0.29537809  0.59105307  1.0
  P  P7731  1  0.33945062  0.42037809  0.59105307  1.0
  P  P7732  1  0.33945062  0.54537809  0.59105307  1.0
  P  P7733  1  0.33945062  0.67037809  0.59105307  1.0
  P  P7734  1  0.33945062  0.79537809  0.59105307  1.0
  P  P7735  1  0.33945062  0.92037809  0.59105307  1.0
  P  P7736  1  0.45056173  0.04537809  0.59105307  1.0
  P  P7737  1  0.45056173  0.17037809  0.59105307  1.0
  P  P7738  1  0.45056173  0.29537809  0.59105307  1.0
  P  P7739  1  0.45056173  0.42037809  0.59105307  1.0
  P  P7740  1  0.45056173  0.54537809  0.59105307  1.0
  P  P7741  1  0.45056173  0.67037809  0.59105307  1.0
  P  P7742  1  0.45056173  0.79537809  0.59105307  1.0
  P  P7743  1  0.45056173  0.92037809  0.59105307  1.0
  P  P7744  1  0.56167284  0.04537809  0.59105307  1.0
  P  P7745  1  0.56167284  0.17037809  0.59105307  1.0
  P  P7746  1  0.56167284  0.29537809  0.59105307  1.0
  P  P7747  1  0.56167284  0.42037809  0.59105307  1.0
  P  P7748  1  0.56167284  0.54537809  0.59105307  1.0
  P  P7749  1  0.56167284  0.67037809  0.59105307  1.0
  P  P7750  1  0.56167284  0.79537809  0.59105307  1.0
  P  P7751  1  0.56167284  0.92037809  0.59105307  1.0
  P  P7752  1  0.67278395  0.04537809  0.59105307  1.0
  P  P7753  1  0.67278395  0.17037809  0.59105307  1.0
  P  P7754  1  0.67278395  0.29537809  0.59105307  1.0
  P  P7755  1  0.67278395  0.42037809  0.59105307  1.0
  P  P7756  1  0.67278395  0.54537809  0.59105307  1.0
  P  P7757  1  0.67278395  0.67037809  0.59105307  1.0
  P  P7758  1  0.67278395  0.79537809  0.59105307  1.0
  P  P7759  1  0.67278395  0.92037809  0.59105307  1.0
  P  P7760  1  0.78389506  0.04537809  0.59105307  1.0
  P  P7761  1  0.78389506  0.17037809  0.59105307  1.0
  P  P7762  1  0.78389506  0.29537809  0.59105307  1.0
  P  P7763  1  0.78389506  0.42037809  0.59105307  1.0
  P  P7764  1  0.78389506  0.54537809  0.59105307  1.0
  P  P7765  1  0.78389506  0.67037809  0.59105307  1.0
  P  P7766  1  0.78389506  0.79537809  0.59105307  1.0
  P  P7767  1  0.78389506  0.92037809  0.59105307  1.0
  P  P7768  1  0.89500617  0.04537809  0.59105307  1.0
  P  P7769  1  0.89500617  0.17037809  0.59105307  1.0
  P  P7770  1  0.89500617  0.29537809  0.59105307  1.0
  P  P7771  1  0.89500617  0.42037809  0.59105307  1.0
  P  P7772  1  0.89500617  0.54537809  0.59105307  1.0
  P  P7773  1  0.89500617  0.67037809  0.59105307  1.0
  P  P7774  1  0.89500617  0.79537809  0.59105307  1.0
  P  P7775  1  0.89500617  0.92037809  0.59105307  1.0
  P  P7776  1  0.09351533  0.12004423  0.54189167  1.0
  P  P7777  1  0.09351533  0.24504423  0.54189167  1.0
  P  P7778  1  0.09351533  0.37004423  0.54189167  1.0
  P  P7779  1  0.09351533  0.49504423  0.54189167  1.0
  P  P7780  1  0.09351533  0.62004423  0.54189167  1.0
  P  P7781  1  0.09351533  0.74504423  0.54189167  1.0
  P  P7782  1  0.09351533  0.87004423  0.54189167  1.0
  P  P7783  1  0.09351533  0.99504423  0.54189167  1.0
  P  P7784  1  0.20462645  0.12004423  0.54189167  1.0
  P  P7785  1  0.20462645  0.24504423  0.54189167  1.0
  P  P7786  1  0.20462645  0.37004423  0.54189167  1.0
  P  P7787  1  0.20462645  0.49504423  0.54189167  1.0
  P  P7788  1  0.20462645  0.62004423  0.54189167  1.0
  P  P7789  1  0.20462645  0.74504423  0.54189167  1.0
  P  P7790  1  0.20462645  0.87004423  0.54189167  1.0
  P  P7791  1  0.20462645  0.99504423  0.54189167  1.0
  P  P7792  1  0.31573756  0.12004423  0.54189167  1.0
  P  P7793  1  0.31573756  0.24504423  0.54189167  1.0
  P  P7794  1  0.31573756  0.37004423  0.54189167  1.0
  P  P7795  1  0.31573756  0.49504423  0.54189167  1.0
  P  P7796  1  0.31573756  0.62004423  0.54189167  1.0
  P  P7797  1  0.31573756  0.74504423  0.54189167  1.0
  P  P7798  1  0.31573756  0.87004423  0.54189167  1.0
  P  P7799  1  0.31573756  0.99504423  0.54189167  1.0
  P  P7800  1  0.42684867  0.12004423  0.54189167  1.0
  P  P7801  1  0.42684867  0.24504423  0.54189167  1.0
  P  P7802  1  0.42684867  0.37004423  0.54189167  1.0
  P  P7803  1  0.42684867  0.49504423  0.54189167  1.0
  P  P7804  1  0.42684867  0.62004423  0.54189167  1.0
  P  P7805  1  0.42684867  0.74504423  0.54189167  1.0
  P  P7806  1  0.42684867  0.87004423  0.54189167  1.0
  P  P7807  1  0.42684867  0.99504423  0.54189167  1.0
  P  P7808  1  0.53795978  0.12004423  0.54189167  1.0
  P  P7809  1  0.53795978  0.24504423  0.54189167  1.0
  P  P7810  1  0.53795978  0.37004423  0.54189167  1.0
  P  P7811  1  0.53795978  0.49504423  0.54189167  1.0
  P  P7812  1  0.53795978  0.62004423  0.54189167  1.0
  P  P7813  1  0.53795978  0.74504423  0.54189167  1.0
  P  P7814  1  0.53795978  0.87004423  0.54189167  1.0
  P  P7815  1  0.53795978  0.99504423  0.54189167  1.0
  P  P7816  1  0.64907089  0.12004423  0.54189167  1.0
  P  P7817  1  0.64907089  0.24504423  0.54189167  1.0
  P  P7818  1  0.64907089  0.37004423  0.54189167  1.0
  P  P7819  1  0.64907089  0.49504423  0.54189167  1.0
  P  P7820  1  0.64907089  0.62004423  0.54189167  1.0
  P  P7821  1  0.64907089  0.74504423  0.54189167  1.0
  P  P7822  1  0.64907089  0.87004423  0.54189167  1.0
  P  P7823  1  0.64907089  0.99504423  0.54189167  1.0
  P  P7824  1  0.76018200  0.12004423  0.54189167  1.0
  P  P7825  1  0.76018200  0.24504423  0.54189167  1.0
  P  P7826  1  0.76018200  0.37004423  0.54189167  1.0
  P  P7827  1  0.76018200  0.49504423  0.54189167  1.0
  P  P7828  1  0.76018200  0.62004423  0.54189167  1.0
  P  P7829  1  0.76018200  0.74504423  0.54189167  1.0
  P  P7830  1  0.76018200  0.87004423  0.54189167  1.0
  P  P7831  1  0.76018200  0.99504423  0.54189167  1.0
  P  P7832  1  0.87129311  0.12004423  0.54189167  1.0
  P  P7833  1  0.87129311  0.24504423  0.54189167  1.0
  P  P7834  1  0.87129311  0.37004423  0.54189167  1.0
  P  P7835  1  0.87129311  0.49504423  0.54189167  1.0
  P  P7836  1  0.87129311  0.62004423  0.54189167  1.0
  P  P7837  1  0.87129311  0.74504423  0.54189167  1.0
  P  P7838  1  0.87129311  0.87004423  0.54189167  1.0
  P  P7839  1  0.87129311  0.99504423  0.54189167  1.0
  P  P7840  1  0.98240422  0.12004423  0.54189167  1.0
  P  P7841  1  0.98240422  0.24504423  0.54189167  1.0
  P  P7842  1  0.98240422  0.37004423  0.54189167  1.0
  P  P7843  1  0.98240422  0.49504423  0.54189167  1.0
  P  P7844  1  0.98240422  0.62004423  0.54189167  1.0
  P  P7845  1  0.98240422  0.74504423  0.54189167  1.0
  P  P7846  1  0.98240422  0.87004423  0.54189167  1.0
  P  P7847  1  0.98240422  0.99504423  0.54189167  1.0
  P  P7848  1  0.03531428  0.12004423  0.63712977  1.0
  P  P7849  1  0.03531428  0.24504423  0.63712977  1.0
  P  P7850  1  0.03531428  0.37004423  0.63712977  1.0
  P  P7851  1  0.03531428  0.49504423  0.63712977  1.0
  P  P7852  1  0.03531428  0.62004423  0.63712977  1.0
  P  P7853  1  0.03531428  0.74504423  0.63712977  1.0
  P  P7854  1  0.03531428  0.87004423  0.63712977  1.0
  P  P7855  1  0.03531428  0.99504423  0.63712977  1.0
  P  P7856  1  0.14642539  0.12004423  0.63712977  1.0
  P  P7857  1  0.14642539  0.24504423  0.63712977  1.0
  P  P7858  1  0.14642539  0.37004423  0.63712977  1.0
  P  P7859  1  0.14642539  0.49504423  0.63712977  1.0
  P  P7860  1  0.14642539  0.62004423  0.63712977  1.0
  P  P7861  1  0.14642539  0.74504423  0.63712977  1.0
  P  P7862  1  0.14642539  0.87004423  0.63712977  1.0
  P  P7863  1  0.14642539  0.99504423  0.63712977  1.0
  P  P7864  1  0.25753650  0.12004423  0.63712977  1.0
  P  P7865  1  0.25753650  0.24504423  0.63712977  1.0
  P  P7866  1  0.25753650  0.37004423  0.63712977  1.0
  P  P7867  1  0.25753650  0.49504423  0.63712977  1.0
  P  P7868  1  0.25753650  0.62004423  0.63712977  1.0
  P  P7869  1  0.25753650  0.74504423  0.63712977  1.0
  P  P7870  1  0.25753650  0.87004423  0.63712977  1.0
  P  P7871  1  0.25753650  0.99504423  0.63712977  1.0
  P  P7872  1  0.36864761  0.12004423  0.63712977  1.0
  P  P7873  1  0.36864761  0.24504423  0.63712977  1.0
  P  P7874  1  0.36864761  0.37004423  0.63712977  1.0
  P  P7875  1  0.36864761  0.49504423  0.63712977  1.0
  P  P7876  1  0.36864761  0.62004423  0.63712977  1.0
  P  P7877  1  0.36864761  0.74504423  0.63712977  1.0
  P  P7878  1  0.36864761  0.87004423  0.63712977  1.0
  P  P7879  1  0.36864761  0.99504423  0.63712977  1.0
  P  P7880  1  0.47975872  0.12004423  0.63712977  1.0
  P  P7881  1  0.47975872  0.24504423  0.63712977  1.0
  P  P7882  1  0.47975872  0.37004423  0.63712977  1.0
  P  P7883  1  0.47975872  0.49504423  0.63712977  1.0
  P  P7884  1  0.47975872  0.62004423  0.63712977  1.0
  P  P7885  1  0.47975872  0.74504423  0.63712977  1.0
  P  P7886  1  0.47975872  0.87004423  0.63712977  1.0
  P  P7887  1  0.47975872  0.99504423  0.63712977  1.0
  P  P7888  1  0.59086983  0.12004423  0.63712977  1.0
  P  P7889  1  0.59086983  0.24504423  0.63712977  1.0
  P  P7890  1  0.59086983  0.37004423  0.63712977  1.0
  P  P7891  1  0.59086983  0.49504423  0.63712977  1.0
  P  P7892  1  0.59086983  0.62004423  0.63712977  1.0
  P  P7893  1  0.59086983  0.74504423  0.63712977  1.0
  P  P7894  1  0.59086983  0.87004423  0.63712977  1.0
  P  P7895  1  0.59086983  0.99504423  0.63712977  1.0
  P  P7896  1  0.70198094  0.12004423  0.63712977  1.0
  P  P7897  1  0.70198094  0.24504423  0.63712977  1.0
  P  P7898  1  0.70198094  0.37004423  0.63712977  1.0
  P  P7899  1  0.70198094  0.49504423  0.63712977  1.0
  P  P7900  1  0.70198094  0.62004423  0.63712977  1.0
  P  P7901  1  0.70198094  0.74504423  0.63712977  1.0
  P  P7902  1  0.70198094  0.87004423  0.63712977  1.0
  P  P7903  1  0.70198094  0.99504423  0.63712977  1.0
  P  P7904  1  0.81309205  0.12004423  0.63712977  1.0
  P  P7905  1  0.81309205  0.24504423  0.63712977  1.0
  P  P7906  1  0.81309205  0.37004423  0.63712977  1.0
  P  P7907  1  0.81309205  0.49504423  0.63712977  1.0
  P  P7908  1  0.81309205  0.62004423  0.63712977  1.0
  P  P7909  1  0.81309205  0.74504423  0.63712977  1.0
  P  P7910  1  0.81309205  0.87004423  0.63712977  1.0
  P  P7911  1  0.81309205  0.99504423  0.63712977  1.0
  P  P7912  1  0.92420317  0.12004423  0.63712977  1.0
  P  P7913  1  0.92420317  0.24504423  0.63712977  1.0
  P  P7914  1  0.92420317  0.37004423  0.63712977  1.0
  P  P7915  1  0.92420317  0.49504423  0.63712977  1.0
  P  P7916  1  0.92420317  0.62004423  0.63712977  1.0
  P  P7917  1  0.92420317  0.74504423  0.63712977  1.0
  P  P7918  1  0.92420317  0.87004423  0.63712977  1.0
  P  P7919  1  0.92420317  0.99504423  0.63712977  1.0
  P  P7920  1  0.00885925  0.12004423  0.58951072  1.0
  P  P7921  1  0.00885925  0.24504423  0.58951072  1.0
  P  P7922  1  0.00885925  0.37004423  0.58951072  1.0
  P  P7923  1  0.00885925  0.49504423  0.58951072  1.0
  P  P7924  1  0.00885925  0.62004423  0.58951072  1.0
  P  P7925  1  0.00885925  0.74504423  0.58951072  1.0
  P  P7926  1  0.00885925  0.87004423  0.58951072  1.0
  P  P7927  1  0.00885925  0.99504423  0.58951072  1.0
  P  P7928  1  0.11997036  0.12004423  0.58951072  1.0
  P  P7929  1  0.11997036  0.24504423  0.58951072  1.0
  P  P7930  1  0.11997036  0.37004423  0.58951072  1.0
  P  P7931  1  0.11997036  0.49504423  0.58951072  1.0
  P  P7932  1  0.11997036  0.62004423  0.58951072  1.0
  P  P7933  1  0.11997036  0.74504423  0.58951072  1.0
  P  P7934  1  0.11997036  0.87004423  0.58951072  1.0
  P  P7935  1  0.11997036  0.99504423  0.58951072  1.0
  P  P7936  1  0.23108147  0.12004423  0.58951072  1.0
  P  P7937  1  0.23108147  0.24504423  0.58951072  1.0
  P  P7938  1  0.23108147  0.37004423  0.58951072  1.0
  P  P7939  1  0.23108147  0.49504423  0.58951072  1.0
  P  P7940  1  0.23108147  0.62004423  0.58951072  1.0
  P  P7941  1  0.23108147  0.74504423  0.58951072  1.0
  P  P7942  1  0.23108147  0.87004423  0.58951072  1.0
  P  P7943  1  0.23108147  0.99504423  0.58951072  1.0
  P  P7944  1  0.34219258  0.12004423  0.58951072  1.0
  P  P7945  1  0.34219258  0.24504423  0.58951072  1.0
  P  P7946  1  0.34219258  0.37004423  0.58951072  1.0
  P  P7947  1  0.34219258  0.49504423  0.58951072  1.0
  P  P7948  1  0.34219258  0.62004423  0.58951072  1.0
  P  P7949  1  0.34219258  0.74504423  0.58951072  1.0
  P  P7950  1  0.34219258  0.87004423  0.58951072  1.0
  P  P7951  1  0.34219258  0.99504423  0.58951072  1.0
  P  P7952  1  0.45330369  0.12004423  0.58951072  1.0
  P  P7953  1  0.45330369  0.24504423  0.58951072  1.0
  P  P7954  1  0.45330369  0.37004423  0.58951072  1.0
  P  P7955  1  0.45330369  0.49504423  0.58951072  1.0
  P  P7956  1  0.45330369  0.62004423  0.58951072  1.0
  P  P7957  1  0.45330369  0.74504423  0.58951072  1.0
  P  P7958  1  0.45330369  0.87004423  0.58951072  1.0
  P  P7959  1  0.45330369  0.99504423  0.58951072  1.0
  P  P7960  1  0.56441481  0.12004423  0.58951072  1.0
  P  P7961  1  0.56441481  0.24504423  0.58951072  1.0
  P  P7962  1  0.56441481  0.37004423  0.58951072  1.0
  P  P7963  1  0.56441481  0.49504423  0.58951072  1.0
  P  P7964  1  0.56441481  0.62004423  0.58951072  1.0
  P  P7965  1  0.56441481  0.74504423  0.58951072  1.0
  P  P7966  1  0.56441481  0.87004423  0.58951072  1.0
  P  P7967  1  0.56441481  0.99504423  0.58951072  1.0
  P  P7968  1  0.67552592  0.12004423  0.58951072  1.0
  P  P7969  1  0.67552592  0.24504423  0.58951072  1.0
  P  P7970  1  0.67552592  0.37004423  0.58951072  1.0
  P  P7971  1  0.67552592  0.49504423  0.58951072  1.0
  P  P7972  1  0.67552592  0.62004423  0.58951072  1.0
  P  P7973  1  0.67552592  0.74504423  0.58951072  1.0
  P  P7974  1  0.67552592  0.87004423  0.58951072  1.0
  P  P7975  1  0.67552592  0.99504423  0.58951072  1.0
  P  P7976  1  0.78663703  0.12004423  0.58951072  1.0
  P  P7977  1  0.78663703  0.24504423  0.58951072  1.0
  P  P7978  1  0.78663703  0.37004423  0.58951072  1.0
  P  P7979  1  0.78663703  0.49504423  0.58951072  1.0
  P  P7980  1  0.78663703  0.62004423  0.58951072  1.0
  P  P7981  1  0.78663703  0.74504423  0.58951072  1.0
  P  P7982  1  0.78663703  0.87004423  0.58951072  1.0
  P  P7983  1  0.78663703  0.99504423  0.58951072  1.0
  P  P7984  1  0.89774814  0.12004423  0.58951072  1.0
  P  P7985  1  0.89774814  0.24504423  0.58951072  1.0
  P  P7986  1  0.89774814  0.37004423  0.58951072  1.0
  P  P7987  1  0.89774814  0.49504423  0.58951072  1.0
  P  P7988  1  0.89774814  0.62004423  0.58951072  1.0
  P  P7989  1  0.89774814  0.74504423  0.58951072  1.0
  P  P7990  1  0.89774814  0.87004423  0.58951072  1.0
  P  P7991  1  0.89774814  0.99504423  0.58951072  1.0
  P  P7992  1  0.05992382  0.00495577  0.52953690  1.0
  P  P7993  1  0.05992382  0.12995577  0.52953690  1.0
  P  P7994  1  0.05992382  0.25495577  0.52953690  1.0
  P  P7995  1  0.05992382  0.37995577  0.52953690  1.0
  P  P7996  1  0.05992382  0.50495577  0.52953690  1.0
  P  P7997  1  0.05992382  0.62995577  0.52953690  1.0
  P  P7998  1  0.05992382  0.75495577  0.52953690  1.0
  P  P7999  1  0.05992382  0.87995577  0.52953690  1.0
  P  P8000  1  0.17103493  0.00495577  0.52953690  1.0
  P  P8001  1  0.17103493  0.12995577  0.52953690  1.0
  P  P8002  1  0.17103493  0.25495577  0.52953690  1.0
  P  P8003  1  0.17103493  0.37995577  0.52953690  1.0
  P  P8004  1  0.17103493  0.50495577  0.52953690  1.0
  P  P8005  1  0.17103493  0.62995577  0.52953690  1.0
  P  P8006  1  0.17103493  0.75495577  0.52953690  1.0
  P  P8007  1  0.17103493  0.87995577  0.52953690  1.0
  P  P8008  1  0.28214604  0.00495577  0.52953690  1.0
  P  P8009  1  0.28214604  0.12995577  0.52953690  1.0
  P  P8010  1  0.28214604  0.25495577  0.52953690  1.0
  P  P8011  1  0.28214604  0.37995577  0.52953690  1.0
  P  P8012  1  0.28214604  0.50495577  0.52953690  1.0
  P  P8013  1  0.28214604  0.62995577  0.52953690  1.0
  P  P8014  1  0.28214604  0.75495577  0.52953690  1.0
  P  P8015  1  0.28214604  0.87995577  0.52953690  1.0
  P  P8016  1  0.39325715  0.00495577  0.52953690  1.0
  P  P8017  1  0.39325715  0.12995577  0.52953690  1.0
  P  P8018  1  0.39325715  0.25495577  0.52953690  1.0
  P  P8019  1  0.39325715  0.37995577  0.52953690  1.0
  P  P8020  1  0.39325715  0.50495577  0.52953690  1.0
  P  P8021  1  0.39325715  0.62995577  0.52953690  1.0
  P  P8022  1  0.39325715  0.75495577  0.52953690  1.0
  P  P8023  1  0.39325715  0.87995577  0.52953690  1.0
  P  P8024  1  0.50436826  0.00495577  0.52953690  1.0
  P  P8025  1  0.50436826  0.12995577  0.52953690  1.0
  P  P8026  1  0.50436826  0.25495577  0.52953690  1.0
  P  P8027  1  0.50436826  0.37995577  0.52953690  1.0
  P  P8028  1  0.50436826  0.50495577  0.52953690  1.0
  P  P8029  1  0.50436826  0.62995577  0.52953690  1.0
  P  P8030  1  0.50436826  0.75495577  0.52953690  1.0
  P  P8031  1  0.50436826  0.87995577  0.52953690  1.0
  P  P8032  1  0.61547937  0.00495577  0.52953690  1.0
  P  P8033  1  0.61547937  0.12995577  0.52953690  1.0
  P  P8034  1  0.61547937  0.25495577  0.52953690  1.0
  P  P8035  1  0.61547937  0.37995577  0.52953690  1.0
  P  P8036  1  0.61547937  0.50495577  0.52953690  1.0
  P  P8037  1  0.61547937  0.62995577  0.52953690  1.0
  P  P8038  1  0.61547937  0.75495577  0.52953690  1.0
  P  P8039  1  0.61547937  0.87995577  0.52953690  1.0
  P  P8040  1  0.72659049  0.00495577  0.52953690  1.0
  P  P8041  1  0.72659049  0.12995577  0.52953690  1.0
  P  P8042  1  0.72659049  0.25495577  0.52953690  1.0
  P  P8043  1  0.72659049  0.37995577  0.52953690  1.0
  P  P8044  1  0.72659049  0.50495577  0.52953690  1.0
  P  P8045  1  0.72659049  0.62995577  0.52953690  1.0
  P  P8046  1  0.72659049  0.75495577  0.52953690  1.0
  P  P8047  1  0.72659049  0.87995577  0.52953690  1.0
  P  P8048  1  0.83770160  0.00495577  0.52953690  1.0
  P  P8049  1  0.83770160  0.12995577  0.52953690  1.0
  P  P8050  1  0.83770160  0.25495577  0.52953690  1.0
  P  P8051  1  0.83770160  0.37995577  0.52953690  1.0
  P  P8052  1  0.83770160  0.50495577  0.52953690  1.0
  P  P8053  1  0.83770160  0.62995577  0.52953690  1.0
  P  P8054  1  0.83770160  0.75495577  0.52953690  1.0
  P  P8055  1  0.83770160  0.87995577  0.52953690  1.0
  P  P8056  1  0.94881271  0.00495577  0.52953690  1.0
  P  P8057  1  0.94881271  0.12995577  0.52953690  1.0
  P  P8058  1  0.94881271  0.25495577  0.52953690  1.0
  P  P8059  1  0.94881271  0.37995577  0.52953690  1.0
  P  P8060  1  0.94881271  0.50495577  0.52953690  1.0
  P  P8061  1  0.94881271  0.62995577  0.52953690  1.0
  P  P8062  1  0.94881271  0.75495577  0.52953690  1.0
  P  P8063  1  0.94881271  0.87995577  0.52953690  1.0
  P  P8064  1  0.00172276  0.00495577  0.62477499  1.0
  P  P8065  1  0.00172276  0.12995577  0.62477499  1.0
  P  P8066  1  0.00172276  0.25495577  0.62477499  1.0
  P  P8067  1  0.00172276  0.37995577  0.62477499  1.0
  P  P8068  1  0.00172276  0.50495577  0.62477499  1.0
  P  P8069  1  0.00172276  0.62995577  0.62477499  1.0
  P  P8070  1  0.00172276  0.75495577  0.62477499  1.0
  P  P8071  1  0.00172276  0.87995577  0.62477499  1.0
  P  P8072  1  0.11283387  0.00495577  0.62477499  1.0
  P  P8073  1  0.11283387  0.12995577  0.62477499  1.0
  P  P8074  1  0.11283387  0.25495577  0.62477499  1.0
  P  P8075  1  0.11283387  0.37995577  0.62477499  1.0
  P  P8076  1  0.11283387  0.50495577  0.62477499  1.0
  P  P8077  1  0.11283387  0.62995577  0.62477499  1.0
  P  P8078  1  0.11283387  0.75495577  0.62477499  1.0
  P  P8079  1  0.11283387  0.87995577  0.62477499  1.0
  P  P8080  1  0.22394498  0.00495577  0.62477499  1.0
  P  P8081  1  0.22394498  0.12995577  0.62477499  1.0
  P  P8082  1  0.22394498  0.25495577  0.62477499  1.0
  P  P8083  1  0.22394498  0.37995577  0.62477499  1.0
  P  P8084  1  0.22394498  0.50495577  0.62477499  1.0
  P  P8085  1  0.22394498  0.62995577  0.62477499  1.0
  P  P8086  1  0.22394498  0.75495577  0.62477499  1.0
  P  P8087  1  0.22394498  0.87995577  0.62477499  1.0
  P  P8088  1  0.33505609  0.00495577  0.62477499  1.0
  P  P8089  1  0.33505609  0.12995577  0.62477499  1.0
  P  P8090  1  0.33505609  0.25495577  0.62477499  1.0
  P  P8091  1  0.33505609  0.37995577  0.62477499  1.0
  P  P8092  1  0.33505609  0.50495577  0.62477499  1.0
  P  P8093  1  0.33505609  0.62995577  0.62477499  1.0
  P  P8094  1  0.33505609  0.75495577  0.62477499  1.0
  P  P8095  1  0.33505609  0.87995577  0.62477499  1.0
  P  P8096  1  0.44616721  0.00495577  0.62477499  1.0
  P  P8097  1  0.44616721  0.12995577  0.62477499  1.0
  P  P8098  1  0.44616721  0.25495577  0.62477499  1.0
  P  P8099  1  0.44616721  0.37995577  0.62477499  1.0
  P  P8100  1  0.44616721  0.50495577  0.62477499  1.0
  P  P8101  1  0.44616721  0.62995577  0.62477499  1.0
  P  P8102  1  0.44616721  0.75495577  0.62477499  1.0
  P  P8103  1  0.44616721  0.87995577  0.62477499  1.0
  P  P8104  1  0.55727832  0.00495577  0.62477499  1.0
  P  P8105  1  0.55727832  0.12995577  0.62477499  1.0
  P  P8106  1  0.55727832  0.25495577  0.62477499  1.0
  P  P8107  1  0.55727832  0.37995577  0.62477499  1.0
  P  P8108  1  0.55727832  0.50495577  0.62477499  1.0
  P  P8109  1  0.55727832  0.62995577  0.62477499  1.0
  P  P8110  1  0.55727832  0.75495577  0.62477499  1.0
  P  P8111  1  0.55727832  0.87995577  0.62477499  1.0
  P  P8112  1  0.66838943  0.00495577  0.62477499  1.0
  P  P8113  1  0.66838943  0.12995577  0.62477499  1.0
  P  P8114  1  0.66838943  0.25495577  0.62477499  1.0
  P  P8115  1  0.66838943  0.37995577  0.62477499  1.0
  P  P8116  1  0.66838943  0.50495577  0.62477499  1.0
  P  P8117  1  0.66838943  0.62995577  0.62477499  1.0
  P  P8118  1  0.66838943  0.75495577  0.62477499  1.0
  P  P8119  1  0.66838943  0.87995577  0.62477499  1.0
  P  P8120  1  0.77950054  0.00495577  0.62477499  1.0
  P  P8121  1  0.77950054  0.12995577  0.62477499  1.0
  P  P8122  1  0.77950054  0.25495577  0.62477499  1.0
  P  P8123  1  0.77950054  0.37995577  0.62477499  1.0
  P  P8124  1  0.77950054  0.50495577  0.62477499  1.0
  P  P8125  1  0.77950054  0.62995577  0.62477499  1.0
  P  P8126  1  0.77950054  0.75495577  0.62477499  1.0
  P  P8127  1  0.77950054  0.87995577  0.62477499  1.0
  P  P8128  1  0.89061165  0.00495577  0.62477499  1.0
  P  P8129  1  0.89061165  0.12995577  0.62477499  1.0
  P  P8130  1  0.89061165  0.25495577  0.62477499  1.0
  P  P8131  1  0.89061165  0.37995577  0.62477499  1.0
  P  P8132  1  0.89061165  0.50495577  0.62477499  1.0
  P  P8133  1  0.89061165  0.62995577  0.62477499  1.0
  P  P8134  1  0.89061165  0.75495577  0.62477499  1.0
  P  P8135  1  0.89061165  0.87995577  0.62477499  1.0
  P  P8136  1  0.08637885  0.00495577  0.57715595  1.0
  P  P8137  1  0.08637885  0.12995577  0.57715595  1.0
  P  P8138  1  0.08637885  0.25495577  0.57715595  1.0
  P  P8139  1  0.08637885  0.37995577  0.57715595  1.0
  P  P8140  1  0.08637885  0.50495577  0.57715595  1.0
  P  P8141  1  0.08637885  0.62995577  0.57715595  1.0
  P  P8142  1  0.08637885  0.75495577  0.57715595  1.0
  P  P8143  1  0.08637885  0.87995577  0.57715595  1.0
  P  P8144  1  0.19748996  0.00495577  0.57715595  1.0
  P  P8145  1  0.19748996  0.12995577  0.57715595  1.0
  P  P8146  1  0.19748996  0.25495577  0.57715595  1.0
  P  P8147  1  0.19748996  0.37995577  0.57715595  1.0
  P  P8148  1  0.19748996  0.50495577  0.57715595  1.0
  P  P8149  1  0.19748996  0.62995577  0.57715595  1.0
  P  P8150  1  0.19748996  0.75495577  0.57715595  1.0
  P  P8151  1  0.19748996  0.87995577  0.57715595  1.0
  P  P8152  1  0.30860107  0.00495577  0.57715595  1.0
  P  P8153  1  0.30860107  0.12995577  0.57715595  1.0
  P  P8154  1  0.30860107  0.25495577  0.57715595  1.0
  P  P8155  1  0.30860107  0.37995577  0.57715595  1.0
  P  P8156  1  0.30860107  0.50495577  0.57715595  1.0
  P  P8157  1  0.30860107  0.62995577  0.57715595  1.0
  P  P8158  1  0.30860107  0.75495577  0.57715595  1.0
  P  P8159  1  0.30860107  0.87995577  0.57715595  1.0
  P  P8160  1  0.41971218  0.00495577  0.57715595  1.0
  P  P8161  1  0.41971218  0.12995577  0.57715595  1.0
  P  P8162  1  0.41971218  0.25495577  0.57715595  1.0
  P  P8163  1  0.41971218  0.37995577  0.57715595  1.0
  P  P8164  1  0.41971218  0.50495577  0.57715595  1.0
  P  P8165  1  0.41971218  0.62995577  0.57715595  1.0
  P  P8166  1  0.41971218  0.75495577  0.57715595  1.0
  P  P8167  1  0.41971218  0.87995577  0.57715595  1.0
  P  P8168  1  0.53082329  0.00495577  0.57715595  1.0
  P  P8169  1  0.53082329  0.12995577  0.57715595  1.0
  P  P8170  1  0.53082329  0.25495577  0.57715595  1.0
  P  P8171  1  0.53082329  0.37995577  0.57715595  1.0
  P  P8172  1  0.53082329  0.50495577  0.57715595  1.0
  P  P8173  1  0.53082329  0.62995577  0.57715595  1.0
  P  P8174  1  0.53082329  0.75495577  0.57715595  1.0
  P  P8175  1  0.53082329  0.87995577  0.57715595  1.0
  P  P8176  1  0.64193440  0.00495577  0.57715595  1.0
  P  P8177  1  0.64193440  0.12995577  0.57715595  1.0
  P  P8178  1  0.64193440  0.25495577  0.57715595  1.0
  P  P8179  1  0.64193440  0.37995577  0.57715595  1.0
  P  P8180  1  0.64193440  0.50495577  0.57715595  1.0
  P  P8181  1  0.64193440  0.62995577  0.57715595  1.0
  P  P8182  1  0.64193440  0.75495577  0.57715595  1.0
  P  P8183  1  0.64193440  0.87995577  0.57715595  1.0
  P  P8184  1  0.75304551  0.00495577  0.57715595  1.0
  P  P8185  1  0.75304551  0.12995577  0.57715595  1.0
  P  P8186  1  0.75304551  0.25495577  0.57715595  1.0
  P  P8187  1  0.75304551  0.37995577  0.57715595  1.0
  P  P8188  1  0.75304551  0.50495577  0.57715595  1.0
  P  P8189  1  0.75304551  0.62995577  0.57715595  1.0
  P  P8190  1  0.75304551  0.75495577  0.57715595  1.0
  P  P8191  1  0.75304551  0.87995577  0.57715595  1.0
  P  P8192  1  0.86415662  0.00495577  0.57715595  1.0
  P  P8193  1  0.86415662  0.12995577  0.57715595  1.0
  P  P8194  1  0.86415662  0.25495577  0.57715595  1.0
  P  P8195  1  0.86415662  0.37995577  0.57715595  1.0
  P  P8196  1  0.86415662  0.50495577  0.57715595  1.0
  P  P8197  1  0.86415662  0.62995577  0.57715595  1.0
  P  P8198  1  0.86415662  0.75495577  0.57715595  1.0
  P  P8199  1  0.86415662  0.87995577  0.57715595  1.0
  P  P8200  1  0.97526773  0.00495577  0.57715595  1.0
  P  P8201  1  0.97526773  0.12995577  0.57715595  1.0
  P  P8202  1  0.97526773  0.25495577  0.57715595  1.0
  P  P8203  1  0.97526773  0.37995577  0.57715595  1.0
  P  P8204  1  0.97526773  0.50495577  0.57715595  1.0
  P  P8205  1  0.97526773  0.62995577  0.57715595  1.0
  P  P8206  1  0.97526773  0.75495577  0.57715595  1.0
  P  P8207  1  0.97526773  0.87995577  0.57715595  1.0
  P  P8208  1  0.02473227  0.06745577  0.51808215  1.0
  P  P8209  1  0.02473227  0.19245577  0.51808215  1.0
  P  P8210  1  0.02473227  0.31745577  0.51808215  1.0
  P  P8211  1  0.02473227  0.44245577  0.51808215  1.0
  P  P8212  1  0.02473227  0.56745577  0.51808215  1.0
  P  P8213  1  0.02473227  0.69245577  0.51808215  1.0
  P  P8214  1  0.02473227  0.81745577  0.51808215  1.0
  P  P8215  1  0.02473227  0.94245577  0.51808215  1.0
  P  P8216  1  0.13584338  0.06745577  0.51808215  1.0
  P  P8217  1  0.13584338  0.19245577  0.51808215  1.0
  P  P8218  1  0.13584338  0.31745577  0.51808215  1.0
  P  P8219  1  0.13584338  0.44245577  0.51808215  1.0
  P  P8220  1  0.13584338  0.56745577  0.51808215  1.0
  P  P8221  1  0.13584338  0.69245577  0.51808215  1.0
  P  P8222  1  0.13584338  0.81745577  0.51808215  1.0
  P  P8223  1  0.13584338  0.94245577  0.51808215  1.0
  P  P8224  1  0.24695449  0.06745577  0.51808215  1.0
  P  P8225  1  0.24695449  0.19245577  0.51808215  1.0
  P  P8226  1  0.24695449  0.31745577  0.51808215  1.0
  P  P8227  1  0.24695449  0.44245577  0.51808215  1.0
  P  P8228  1  0.24695449  0.56745577  0.51808215  1.0
  P  P8229  1  0.24695449  0.69245577  0.51808215  1.0
  P  P8230  1  0.24695449  0.81745577  0.51808215  1.0
  P  P8231  1  0.24695449  0.94245577  0.51808215  1.0
  P  P8232  1  0.35806560  0.06745577  0.51808215  1.0
  P  P8233  1  0.35806560  0.19245577  0.51808215  1.0
  P  P8234  1  0.35806560  0.31745577  0.51808215  1.0
  P  P8235  1  0.35806560  0.44245577  0.51808215  1.0
  P  P8236  1  0.35806560  0.56745577  0.51808215  1.0
  P  P8237  1  0.35806560  0.69245577  0.51808215  1.0
  P  P8238  1  0.35806560  0.81745577  0.51808215  1.0
  P  P8239  1  0.35806560  0.94245577  0.51808215  1.0
  P  P8240  1  0.46917671  0.06745577  0.51808215  1.0
  P  P8241  1  0.46917671  0.19245577  0.51808215  1.0
  P  P8242  1  0.46917671  0.31745577  0.51808215  1.0
  P  P8243  1  0.46917671  0.44245577  0.51808215  1.0
  P  P8244  1  0.46917671  0.56745577  0.51808215  1.0
  P  P8245  1  0.46917671  0.69245577  0.51808215  1.0
  P  P8246  1  0.46917671  0.81745577  0.51808215  1.0
  P  P8247  1  0.46917671  0.94245577  0.51808215  1.0
  P  P8248  1  0.58028782  0.06745577  0.51808215  1.0
  P  P8249  1  0.58028782  0.19245577  0.51808215  1.0
  P  P8250  1  0.58028782  0.31745577  0.51808215  1.0
  P  P8251  1  0.58028782  0.44245577  0.51808215  1.0
  P  P8252  1  0.58028782  0.56745577  0.51808215  1.0
  P  P8253  1  0.58028782  0.69245577  0.51808215  1.0
  P  P8254  1  0.58028782  0.81745577  0.51808215  1.0
  P  P8255  1  0.58028782  0.94245577  0.51808215  1.0
  P  P8256  1  0.69139893  0.06745577  0.51808215  1.0
  P  P8257  1  0.69139893  0.19245577  0.51808215  1.0
  P  P8258  1  0.69139893  0.31745577  0.51808215  1.0
  P  P8259  1  0.69139893  0.44245577  0.51808215  1.0
  P  P8260  1  0.69139893  0.56745577  0.51808215  1.0
  P  P8261  1  0.69139893  0.69245577  0.51808215  1.0
  P  P8262  1  0.69139893  0.81745577  0.51808215  1.0
  P  P8263  1  0.69139893  0.94245577  0.51808215  1.0
  P  P8264  1  0.80251004  0.06745577  0.51808215  1.0
  P  P8265  1  0.80251004  0.19245577  0.51808215  1.0
  P  P8266  1  0.80251004  0.31745577  0.51808215  1.0
  P  P8267  1  0.80251004  0.44245577  0.51808215  1.0
  P  P8268  1  0.80251004  0.56745577  0.51808215  1.0
  P  P8269  1  0.80251004  0.69245577  0.51808215  1.0
  P  P8270  1  0.80251004  0.81745577  0.51808215  1.0
  P  P8271  1  0.80251004  0.94245577  0.51808215  1.0
  P  P8272  1  0.91362115  0.06745577  0.51808215  1.0
  P  P8273  1  0.91362115  0.19245577  0.51808215  1.0
  P  P8274  1  0.91362115  0.31745577  0.51808215  1.0
  P  P8275  1  0.91362115  0.44245577  0.51808215  1.0
  P  P8276  1  0.91362115  0.56745577  0.51808215  1.0
  P  P8277  1  0.91362115  0.69245577  0.51808215  1.0
  P  P8278  1  0.91362115  0.81745577  0.51808215  1.0
  P  P8279  1  0.91362115  0.94245577  0.51808215  1.0
  P  P8280  1  0.07764232  0.06745577  0.61332024  1.0
  P  P8281  1  0.07764232  0.19245577  0.61332024  1.0
  P  P8282  1  0.07764232  0.31745577  0.61332024  1.0
  P  P8283  1  0.07764232  0.44245577  0.61332024  1.0
  P  P8284  1  0.07764232  0.56745577  0.61332024  1.0
  P  P8285  1  0.07764232  0.69245577  0.61332024  1.0
  P  P8286  1  0.07764232  0.81745577  0.61332024  1.0
  P  P8287  1  0.07764232  0.94245577  0.61332024  1.0
  P  P8288  1  0.18875343  0.06745577  0.61332024  1.0
  P  P8289  1  0.18875343  0.19245577  0.61332024  1.0
  P  P8290  1  0.18875343  0.31745577  0.61332024  1.0
  P  P8291  1  0.18875343  0.44245577  0.61332024  1.0
  P  P8292  1  0.18875343  0.56745577  0.61332024  1.0
  P  P8293  1  0.18875343  0.69245577  0.61332024  1.0
  P  P8294  1  0.18875343  0.81745577  0.61332024  1.0
  P  P8295  1  0.18875343  0.94245577  0.61332024  1.0
  P  P8296  1  0.29986454  0.06745577  0.61332024  1.0
  P  P8297  1  0.29986454  0.19245577  0.61332024  1.0
  P  P8298  1  0.29986454  0.31745577  0.61332024  1.0
  P  P8299  1  0.29986454  0.44245577  0.61332024  1.0
  P  P8300  1  0.29986454  0.56745577  0.61332024  1.0
  P  P8301  1  0.29986454  0.69245577  0.61332024  1.0
  P  P8302  1  0.29986454  0.81745577  0.61332024  1.0
  P  P8303  1  0.29986454  0.94245577  0.61332024  1.0
  P  P8304  1  0.41097565  0.06745577  0.61332024  1.0
  P  P8305  1  0.41097565  0.19245577  0.61332024  1.0
  P  P8306  1  0.41097565  0.31745577  0.61332024  1.0
  P  P8307  1  0.41097565  0.44245577  0.61332024  1.0
  P  P8308  1  0.41097565  0.56745577  0.61332024  1.0
  P  P8309  1  0.41097565  0.69245577  0.61332024  1.0
  P  P8310  1  0.41097565  0.81745577  0.61332024  1.0
  P  P8311  1  0.41097565  0.94245577  0.61332024  1.0
  P  P8312  1  0.52208676  0.06745577  0.61332024  1.0
  P  P8313  1  0.52208676  0.19245577  0.61332024  1.0
  P  P8314  1  0.52208676  0.31745577  0.61332024  1.0
  P  P8315  1  0.52208676  0.44245577  0.61332024  1.0
  P  P8316  1  0.52208676  0.56745577  0.61332024  1.0
  P  P8317  1  0.52208676  0.69245577  0.61332024  1.0
  P  P8318  1  0.52208676  0.81745577  0.61332024  1.0
  P  P8319  1  0.52208676  0.94245577  0.61332024  1.0
  P  P8320  1  0.63319787  0.06745577  0.61332024  1.0
  P  P8321  1  0.63319787  0.19245577  0.61332024  1.0
  P  P8322  1  0.63319787  0.31745577  0.61332024  1.0
  P  P8323  1  0.63319787  0.44245577  0.61332024  1.0
  P  P8324  1  0.63319787  0.56745577  0.61332024  1.0
  P  P8325  1  0.63319787  0.69245577  0.61332024  1.0
  P  P8326  1  0.63319787  0.81745577  0.61332024  1.0
  P  P8327  1  0.63319787  0.94245577  0.61332024  1.0
  P  P8328  1  0.74430899  0.06745577  0.61332024  1.0
  P  P8329  1  0.74430899  0.19245577  0.61332024  1.0
  P  P8330  1  0.74430899  0.31745577  0.61332024  1.0
  P  P8331  1  0.74430899  0.44245577  0.61332024  1.0
  P  P8332  1  0.74430899  0.56745577  0.61332024  1.0
  P  P8333  1  0.74430899  0.69245577  0.61332024  1.0
  P  P8334  1  0.74430899  0.81745577  0.61332024  1.0
  P  P8335  1  0.74430899  0.94245577  0.61332024  1.0
  P  P8336  1  0.85542010  0.06745577  0.61332024  1.0
  P  P8337  1  0.85542010  0.19245577  0.61332024  1.0
  P  P8338  1  0.85542010  0.31745577  0.61332024  1.0
  P  P8339  1  0.85542010  0.44245577  0.61332024  1.0
  P  P8340  1  0.85542010  0.56745577  0.61332024  1.0
  P  P8341  1  0.85542010  0.69245577  0.61332024  1.0
  P  P8342  1  0.85542010  0.81745577  0.61332024  1.0
  P  P8343  1  0.85542010  0.94245577  0.61332024  1.0
  P  P8344  1  0.96653121  0.06745577  0.61332024  1.0
  P  P8345  1  0.96653121  0.19245577  0.61332024  1.0
  P  P8346  1  0.96653121  0.31745577  0.61332024  1.0
  P  P8347  1  0.96653121  0.44245577  0.61332024  1.0
  P  P8348  1  0.96653121  0.56745577  0.61332024  1.0
  P  P8349  1  0.96653121  0.69245577  0.61332024  1.0
  P  P8350  1  0.96653121  0.81745577  0.61332024  1.0
  P  P8351  1  0.96653121  0.94245577  0.61332024  1.0
  P  P8352  1  0.05118729  0.06745577  0.56570120  1.0
  P  P8353  1  0.05118729  0.19245577  0.56570120  1.0
  P  P8354  1  0.05118729  0.31745577  0.56570120  1.0
  P  P8355  1  0.05118729  0.44245577  0.56570120  1.0
  P  P8356  1  0.05118729  0.56745577  0.56570120  1.0
  P  P8357  1  0.05118729  0.69245577  0.56570120  1.0
  P  P8358  1  0.05118729  0.81745577  0.56570120  1.0
  P  P8359  1  0.05118729  0.94245577  0.56570120  1.0
  P  P8360  1  0.16229840  0.06745577  0.56570120  1.0
  P  P8361  1  0.16229840  0.19245577  0.56570120  1.0
  P  P8362  1  0.16229840  0.31745577  0.56570120  1.0
  P  P8363  1  0.16229840  0.44245577  0.56570120  1.0
  P  P8364  1  0.16229840  0.56745577  0.56570120  1.0
  P  P8365  1  0.16229840  0.69245577  0.56570120  1.0
  P  P8366  1  0.16229840  0.81745577  0.56570120  1.0
  P  P8367  1  0.16229840  0.94245577  0.56570120  1.0
  P  P8368  1  0.27340951  0.06745577  0.56570120  1.0
  P  P8369  1  0.27340951  0.19245577  0.56570120  1.0
  P  P8370  1  0.27340951  0.31745577  0.56570120  1.0
  P  P8371  1  0.27340951  0.44245577  0.56570120  1.0
  P  P8372  1  0.27340951  0.56745577  0.56570120  1.0
  P  P8373  1  0.27340951  0.69245577  0.56570120  1.0
  P  P8374  1  0.27340951  0.81745577  0.56570120  1.0
  P  P8375  1  0.27340951  0.94245577  0.56570120  1.0
  P  P8376  1  0.38452063  0.06745577  0.56570120  1.0
  P  P8377  1  0.38452063  0.19245577  0.56570120  1.0
  P  P8378  1  0.38452063  0.31745577  0.56570120  1.0
  P  P8379  1  0.38452063  0.44245577  0.56570120  1.0
  P  P8380  1  0.38452063  0.56745577  0.56570120  1.0
  P  P8381  1  0.38452063  0.69245577  0.56570120  1.0
  P  P8382  1  0.38452063  0.81745577  0.56570120  1.0
  P  P8383  1  0.38452063  0.94245577  0.56570120  1.0
  P  P8384  1  0.49563174  0.06745577  0.56570120  1.0
  P  P8385  1  0.49563174  0.19245577  0.56570120  1.0
  P  P8386  1  0.49563174  0.31745577  0.56570120  1.0
  P  P8387  1  0.49563174  0.44245577  0.56570120  1.0
  P  P8388  1  0.49563174  0.56745577  0.56570120  1.0
  P  P8389  1  0.49563174  0.69245577  0.56570120  1.0
  P  P8390  1  0.49563174  0.81745577  0.56570120  1.0
  P  P8391  1  0.49563174  0.94245577  0.56570120  1.0
  P  P8392  1  0.60674285  0.06745577  0.56570120  1.0
  P  P8393  1  0.60674285  0.19245577  0.56570120  1.0
  P  P8394  1  0.60674285  0.31745577  0.56570120  1.0
  P  P8395  1  0.60674285  0.44245577  0.56570120  1.0
  P  P8396  1  0.60674285  0.56745577  0.56570120  1.0
  P  P8397  1  0.60674285  0.69245577  0.56570120  1.0
  P  P8398  1  0.60674285  0.81745577  0.56570120  1.0
  P  P8399  1  0.60674285  0.94245577  0.56570120  1.0
  P  P8400  1  0.71785396  0.06745577  0.56570120  1.0
  P  P8401  1  0.71785396  0.19245577  0.56570120  1.0
  P  P8402  1  0.71785396  0.31745577  0.56570120  1.0
  P  P8403  1  0.71785396  0.44245577  0.56570120  1.0
  P  P8404  1  0.71785396  0.56745577  0.56570120  1.0
  P  P8405  1  0.71785396  0.69245577  0.56570120  1.0
  P  P8406  1  0.71785396  0.81745577  0.56570120  1.0
  P  P8407  1  0.71785396  0.94245577  0.56570120  1.0
  P  P8408  1  0.82896507  0.06745577  0.56570120  1.0
  P  P8409  1  0.82896507  0.19245577  0.56570120  1.0
  P  P8410  1  0.82896507  0.31745577  0.56570120  1.0
  P  P8411  1  0.82896507  0.44245577  0.56570120  1.0
  P  P8412  1  0.82896507  0.56745577  0.56570120  1.0
  P  P8413  1  0.82896507  0.69245577  0.56570120  1.0
  P  P8414  1  0.82896507  0.81745577  0.56570120  1.0
  P  P8415  1  0.82896507  0.94245577  0.56570120  1.0
  P  P8416  1  0.94007618  0.06745577  0.56570120  1.0
  P  P8417  1  0.94007618  0.19245577  0.56570120  1.0
  P  P8418  1  0.94007618  0.31745577  0.56570120  1.0
  P  P8419  1  0.94007618  0.44245577  0.56570120  1.0
  P  P8420  1  0.94007618  0.56745577  0.56570120  1.0
  P  P8421  1  0.94007618  0.69245577  0.56570120  1.0
  P  P8422  1  0.94007618  0.81745577  0.56570120  1.0
  P  P8423  1  0.94007618  0.94245577  0.56570120  1.0
  P  P8424  1  0.01759578  0.05754423  0.55334642  1.0
  P  P8425  1  0.01759578  0.18254423  0.55334642  1.0
  P  P8426  1  0.01759578  0.30754423  0.55334642  1.0
  P  P8427  1  0.01759578  0.43254423  0.55334642  1.0
  P  P8428  1  0.01759578  0.55754423  0.55334642  1.0
  P  P8429  1  0.01759578  0.68254423  0.55334642  1.0
  P  P8430  1  0.01759578  0.80754423  0.55334642  1.0
  P  P8431  1  0.01759578  0.93254423  0.55334642  1.0
  P  P8432  1  0.12870689  0.05754423  0.55334642  1.0
  P  P8433  1  0.12870689  0.18254423  0.55334642  1.0
  P  P8434  1  0.12870689  0.30754423  0.55334642  1.0
  P  P8435  1  0.12870689  0.43254423  0.55334642  1.0
  P  P8436  1  0.12870689  0.55754423  0.55334642  1.0
  P  P8437  1  0.12870689  0.68254423  0.55334642  1.0
  P  P8438  1  0.12870689  0.80754423  0.55334642  1.0
  P  P8439  1  0.12870689  0.93254423  0.55334642  1.0
  P  P8440  1  0.23981800  0.05754423  0.55334642  1.0
  P  P8441  1  0.23981800  0.18254423  0.55334642  1.0
  P  P8442  1  0.23981800  0.30754423  0.55334642  1.0
  P  P8443  1  0.23981800  0.43254423  0.55334642  1.0
  P  P8444  1  0.23981800  0.55754423  0.55334642  1.0
  P  P8445  1  0.23981800  0.68254423  0.55334642  1.0
  P  P8446  1  0.23981800  0.80754423  0.55334642  1.0
  P  P8447  1  0.23981800  0.93254423  0.55334642  1.0
  P  P8448  1  0.35092911  0.05754423  0.55334642  1.0
  P  P8449  1  0.35092911  0.18254423  0.55334642  1.0
  P  P8450  1  0.35092911  0.30754423  0.55334642  1.0
  P  P8451  1  0.35092911  0.43254423  0.55334642  1.0
  P  P8452  1  0.35092911  0.55754423  0.55334642  1.0
  P  P8453  1  0.35092911  0.68254423  0.55334642  1.0
  P  P8454  1  0.35092911  0.80754423  0.55334642  1.0
  P  P8455  1  0.35092911  0.93254423  0.55334642  1.0
  P  P8456  1  0.46204022  0.05754423  0.55334642  1.0
  P  P8457  1  0.46204022  0.18254423  0.55334642  1.0
  P  P8458  1  0.46204022  0.30754423  0.55334642  1.0
  P  P8459  1  0.46204022  0.43254423  0.55334642  1.0
  P  P8460  1  0.46204022  0.55754423  0.55334642  1.0
  P  P8461  1  0.46204022  0.68254423  0.55334642  1.0
  P  P8462  1  0.46204022  0.80754423  0.55334642  1.0
  P  P8463  1  0.46204022  0.93254423  0.55334642  1.0
  P  P8464  1  0.57315133  0.05754423  0.55334642  1.0
  P  P8465  1  0.57315133  0.18254423  0.55334642  1.0
  P  P8466  1  0.57315133  0.30754423  0.55334642  1.0
  P  P8467  1  0.57315133  0.43254423  0.55334642  1.0
  P  P8468  1  0.57315133  0.55754423  0.55334642  1.0
  P  P8469  1  0.57315133  0.68254423  0.55334642  1.0
  P  P8470  1  0.57315133  0.80754423  0.55334642  1.0
  P  P8471  1  0.57315133  0.93254423  0.55334642  1.0
  P  P8472  1  0.68426244  0.05754423  0.55334642  1.0
  P  P8473  1  0.68426244  0.18254423  0.55334642  1.0
  P  P8474  1  0.68426244  0.30754423  0.55334642  1.0
  P  P8475  1  0.68426244  0.43254423  0.55334642  1.0
  P  P8476  1  0.68426244  0.55754423  0.55334642  1.0
  P  P8477  1  0.68426244  0.68254423  0.55334642  1.0
  P  P8478  1  0.68426244  0.80754423  0.55334642  1.0
  P  P8479  1  0.68426244  0.93254423  0.55334642  1.0
  P  P8480  1  0.79537355  0.05754423  0.55334642  1.0
  P  P8481  1  0.79537355  0.18254423  0.55334642  1.0
  P  P8482  1  0.79537355  0.30754423  0.55334642  1.0
  P  P8483  1  0.79537355  0.43254423  0.55334642  1.0
  P  P8484  1  0.79537355  0.55754423  0.55334642  1.0
  P  P8485  1  0.79537355  0.68254423  0.55334642  1.0
  P  P8486  1  0.79537355  0.80754423  0.55334642  1.0
  P  P8487  1  0.79537355  0.93254423  0.55334642  1.0
  P  P8488  1  0.90648467  0.05754423  0.55334642  1.0
  P  P8489  1  0.90648467  0.18254423  0.55334642  1.0
  P  P8490  1  0.90648467  0.30754423  0.55334642  1.0
  P  P8491  1  0.90648467  0.43254423  0.55334642  1.0
  P  P8492  1  0.90648467  0.55754423  0.55334642  1.0
  P  P8493  1  0.90648467  0.68254423  0.55334642  1.0
  P  P8494  1  0.90648467  0.80754423  0.55334642  1.0
  P  P8495  1  0.90648467  0.93254423  0.55334642  1.0
  P  P8496  1  0.10225186  0.05754423  0.50572738  1.0
  P  P8497  1  0.10225186  0.18254423  0.50572738  1.0
  P  P8498  1  0.10225186  0.30754423  0.50572738  1.0
  P  P8499  1  0.10225186  0.43254423  0.50572738  1.0
  P  P8500  1  0.10225186  0.55754423  0.50572738  1.0
  P  P8501  1  0.10225186  0.68254423  0.50572738  1.0
  P  P8502  1  0.10225186  0.80754423  0.50572738  1.0
  P  P8503  1  0.10225186  0.93254423  0.50572738  1.0
  P  P8504  1  0.21336297  0.05754423  0.50572738  1.0
  P  P8505  1  0.21336297  0.18254423  0.50572738  1.0
  P  P8506  1  0.21336297  0.30754423  0.50572738  1.0
  P  P8507  1  0.21336297  0.43254423  0.50572738  1.0
  P  P8508  1  0.21336297  0.55754423  0.50572738  1.0
  P  P8509  1  0.21336297  0.68254423  0.50572738  1.0
  P  P8510  1  0.21336297  0.80754423  0.50572738  1.0
  P  P8511  1  0.21336297  0.93254423  0.50572738  1.0
  P  P8512  1  0.32447408  0.05754423  0.50572738  1.0
  P  P8513  1  0.32447408  0.18254423  0.50572738  1.0
  P  P8514  1  0.32447408  0.30754423  0.50572738  1.0
  P  P8515  1  0.32447408  0.43254423  0.50572738  1.0
  P  P8516  1  0.32447408  0.55754423  0.50572738  1.0
  P  P8517  1  0.32447408  0.68254423  0.50572738  1.0
  P  P8518  1  0.32447408  0.80754423  0.50572738  1.0
  P  P8519  1  0.32447408  0.93254423  0.50572738  1.0
  P  P8520  1  0.43558519  0.05754423  0.50572738  1.0
  P  P8521  1  0.43558519  0.18254423  0.50572738  1.0
  P  P8522  1  0.43558519  0.30754423  0.50572738  1.0
  P  P8523  1  0.43558519  0.43254423  0.50572738  1.0
  P  P8524  1  0.43558519  0.55754423  0.50572738  1.0
  P  P8525  1  0.43558519  0.68254423  0.50572738  1.0
  P  P8526  1  0.43558519  0.80754423  0.50572738  1.0
  P  P8527  1  0.43558519  0.93254423  0.50572738  1.0
  P  P8528  1  0.54669631  0.05754423  0.50572738  1.0
  P  P8529  1  0.54669631  0.18254423  0.50572738  1.0
  P  P8530  1  0.54669631  0.30754423  0.50572738  1.0
  P  P8531  1  0.54669631  0.43254423  0.50572738  1.0
  P  P8532  1  0.54669631  0.55754423  0.50572738  1.0
  P  P8533  1  0.54669631  0.68254423  0.50572738  1.0
  P  P8534  1  0.54669631  0.80754423  0.50572738  1.0
  P  P8535  1  0.54669631  0.93254423  0.50572738  1.0
  P  P8536  1  0.65780742  0.05754423  0.50572738  1.0
  P  P8537  1  0.65780742  0.18254423  0.50572738  1.0
  P  P8538  1  0.65780742  0.30754423  0.50572738  1.0
  P  P8539  1  0.65780742  0.43254423  0.50572738  1.0
  P  P8540  1  0.65780742  0.55754423  0.50572738  1.0
  P  P8541  1  0.65780742  0.68254423  0.50572738  1.0
  P  P8542  1  0.65780742  0.80754423  0.50572738  1.0
  P  P8543  1  0.65780742  0.93254423  0.50572738  1.0
  P  P8544  1  0.76891853  0.05754423  0.50572738  1.0
  P  P8545  1  0.76891853  0.18254423  0.50572738  1.0
  P  P8546  1  0.76891853  0.30754423  0.50572738  1.0
  P  P8547  1  0.76891853  0.43254423  0.50572738  1.0
  P  P8548  1  0.76891853  0.55754423  0.50572738  1.0
  P  P8549  1  0.76891853  0.68254423  0.50572738  1.0
  P  P8550  1  0.76891853  0.80754423  0.50572738  1.0
  P  P8551  1  0.76891853  0.93254423  0.50572738  1.0
  P  P8552  1  0.88002964  0.05754423  0.50572738  1.0
  P  P8553  1  0.88002964  0.18254423  0.50572738  1.0
  P  P8554  1  0.88002964  0.30754423  0.50572738  1.0
  P  P8555  1  0.88002964  0.43254423  0.50572738  1.0
  P  P8556  1  0.88002964  0.55754423  0.50572738  1.0
  P  P8557  1  0.88002964  0.68254423  0.50572738  1.0
  P  P8558  1  0.88002964  0.80754423  0.50572738  1.0
  P  P8559  1  0.88002964  0.93254423  0.50572738  1.0
  P  P8560  1  0.99114075  0.05754423  0.50572738  1.0
  P  P8561  1  0.99114075  0.18254423  0.50572738  1.0
  P  P8562  1  0.99114075  0.30754423  0.50572738  1.0
  P  P8563  1  0.99114075  0.43254423  0.50572738  1.0
  P  P8564  1  0.99114075  0.55754423  0.50572738  1.0
  P  P8565  1  0.99114075  0.68254423  0.50572738  1.0
  P  P8566  1  0.99114075  0.80754423  0.50572738  1.0
  P  P8567  1  0.99114075  0.93254423  0.50572738  1.0
  P  P8568  1  0.04405080  0.05754423  0.60096547  1.0
  P  P8569  1  0.04405080  0.18254423  0.60096547  1.0
  P  P8570  1  0.04405080  0.30754423  0.60096547  1.0
  P  P8571  1  0.04405080  0.43254423  0.60096547  1.0
  P  P8572  1  0.04405080  0.55754423  0.60096547  1.0
  P  P8573  1  0.04405080  0.68254423  0.60096547  1.0
  P  P8574  1  0.04405080  0.80754423  0.60096547  1.0
  P  P8575  1  0.04405080  0.93254423  0.60096547  1.0
  P  P8576  1  0.15516191  0.05754423  0.60096547  1.0
  P  P8577  1  0.15516191  0.18254423  0.60096547  1.0
  P  P8578  1  0.15516191  0.30754423  0.60096547  1.0
  P  P8579  1  0.15516191  0.43254423  0.60096547  1.0
  P  P8580  1  0.15516191  0.55754423  0.60096547  1.0
  P  P8581  1  0.15516191  0.68254423  0.60096547  1.0
  P  P8582  1  0.15516191  0.80754423  0.60096547  1.0
  P  P8583  1  0.15516191  0.93254423  0.60096547  1.0
  P  P8584  1  0.26627303  0.05754423  0.60096547  1.0
  P  P8585  1  0.26627303  0.18254423  0.60096547  1.0
  P  P8586  1  0.26627303  0.30754423  0.60096547  1.0
  P  P8587  1  0.26627303  0.43254423  0.60096547  1.0
  P  P8588  1  0.26627303  0.55754423  0.60096547  1.0
  P  P8589  1  0.26627303  0.68254423  0.60096547  1.0
  P  P8590  1  0.26627303  0.80754423  0.60096547  1.0
  P  P8591  1  0.26627303  0.93254423  0.60096547  1.0
  P  P8592  1  0.37738414  0.05754423  0.60096547  1.0
  P  P8593  1  0.37738414  0.18254423  0.60096547  1.0
  P  P8594  1  0.37738414  0.30754423  0.60096547  1.0
  P  P8595  1  0.37738414  0.43254423  0.60096547  1.0
  P  P8596  1  0.37738414  0.55754423  0.60096547  1.0
  P  P8597  1  0.37738414  0.68254423  0.60096547  1.0
  P  P8598  1  0.37738414  0.80754423  0.60096547  1.0
  P  P8599  1  0.37738414  0.93254423  0.60096547  1.0
  P  P8600  1  0.48849525  0.05754423  0.60096547  1.0
  P  P8601  1  0.48849525  0.18254423  0.60096547  1.0
  P  P8602  1  0.48849525  0.30754423  0.60096547  1.0
  P  P8603  1  0.48849525  0.43254423  0.60096547  1.0
  P  P8604  1  0.48849525  0.55754423  0.60096547  1.0
  P  P8605  1  0.48849525  0.68254423  0.60096547  1.0
  P  P8606  1  0.48849525  0.80754423  0.60096547  1.0
  P  P8607  1  0.48849525  0.93254423  0.60096547  1.0
  P  P8608  1  0.59960636  0.05754423  0.60096547  1.0
  P  P8609  1  0.59960636  0.18254423  0.60096547  1.0
  P  P8610  1  0.59960636  0.30754423  0.60096547  1.0
  P  P8611  1  0.59960636  0.43254423  0.60096547  1.0
  P  P8612  1  0.59960636  0.55754423  0.60096547  1.0
  P  P8613  1  0.59960636  0.68254423  0.60096547  1.0
  P  P8614  1  0.59960636  0.80754423  0.60096547  1.0
  P  P8615  1  0.59960636  0.93254423  0.60096547  1.0
  P  P8616  1  0.71071747  0.05754423  0.60096547  1.0
  P  P8617  1  0.71071747  0.18254423  0.60096547  1.0
  P  P8618  1  0.71071747  0.30754423  0.60096547  1.0
  P  P8619  1  0.71071747  0.43254423  0.60096547  1.0
  P  P8620  1  0.71071747  0.55754423  0.60096547  1.0
  P  P8621  1  0.71071747  0.68254423  0.60096547  1.0
  P  P8622  1  0.71071747  0.80754423  0.60096547  1.0
  P  P8623  1  0.71071747  0.93254423  0.60096547  1.0
  P  P8624  1  0.82182858  0.05754423  0.60096547  1.0
  P  P8625  1  0.82182858  0.18254423  0.60096547  1.0
  P  P8626  1  0.82182858  0.30754423  0.60096547  1.0
  P  P8627  1  0.82182858  0.43254423  0.60096547  1.0
  P  P8628  1  0.82182858  0.55754423  0.60096547  1.0
  P  P8629  1  0.82182858  0.68254423  0.60096547  1.0
  P  P8630  1  0.82182858  0.80754423  0.60096547  1.0
  P  P8631  1  0.82182858  0.93254423  0.60096547  1.0
  P  P8632  1  0.93293969  0.05754423  0.60096547  1.0
  P  P8633  1  0.93293969  0.18254423  0.60096547  1.0
  P  P8634  1  0.93293969  0.30754423  0.60096547  1.0
  P  P8635  1  0.93293969  0.43254423  0.60096547  1.0
  P  P8636  1  0.93293969  0.55754423  0.60096547  1.0
  P  P8637  1  0.93293969  0.68254423  0.60096547  1.0
  P  P8638  1  0.93293969  0.80754423  0.60096547  1.0
  P  P8639  1  0.93293969  0.93254423  0.60096547  1.0
  P  P8640  1  0.09970282  0.10787809  0.69466121  1.0
  P  P8641  1  0.09970282  0.23287809  0.69466121  1.0
  P  P8642  1  0.09970282  0.35787809  0.69466121  1.0
  P  P8643  1  0.09970282  0.48287809  0.69466121  1.0
  P  P8644  1  0.09970282  0.60787809  0.69466121  1.0
  P  P8645  1  0.09970282  0.73287809  0.69466121  1.0
  P  P8646  1  0.09970282  0.85787809  0.69466121  1.0
  P  P8647  1  0.09970282  0.98287809  0.69466121  1.0
  P  P8648  1  0.21081393  0.10787809  0.69466121  1.0
  P  P8649  1  0.21081393  0.23287809  0.69466121  1.0
  P  P8650  1  0.21081393  0.35787809  0.69466121  1.0
  P  P8651  1  0.21081393  0.48287809  0.69466121  1.0
  P  P8652  1  0.21081393  0.60787809  0.69466121  1.0
  P  P8653  1  0.21081393  0.73287809  0.69466121  1.0
  P  P8654  1  0.21081393  0.85787809  0.69466121  1.0
  P  P8655  1  0.21081393  0.98287809  0.69466121  1.0
  P  P8656  1  0.32192504  0.10787809  0.69466121  1.0
  P  P8657  1  0.32192504  0.23287809  0.69466121  1.0
  P  P8658  1  0.32192504  0.35787809  0.69466121  1.0
  P  P8659  1  0.32192504  0.48287809  0.69466121  1.0
  P  P8660  1  0.32192504  0.60787809  0.69466121  1.0
  P  P8661  1  0.32192504  0.73287809  0.69466121  1.0
  P  P8662  1  0.32192504  0.85787809  0.69466121  1.0
  P  P8663  1  0.32192504  0.98287809  0.69466121  1.0
  P  P8664  1  0.43303615  0.10787809  0.69466121  1.0
  P  P8665  1  0.43303615  0.23287809  0.69466121  1.0
  P  P8666  1  0.43303615  0.35787809  0.69466121  1.0
  P  P8667  1  0.43303615  0.48287809  0.69466121  1.0
  P  P8668  1  0.43303615  0.60787809  0.69466121  1.0
  P  P8669  1  0.43303615  0.73287809  0.69466121  1.0
  P  P8670  1  0.43303615  0.85787809  0.69466121  1.0
  P  P8671  1  0.43303615  0.98287809  0.69466121  1.0
  P  P8672  1  0.54414726  0.10787809  0.69466121  1.0
  P  P8673  1  0.54414726  0.23287809  0.69466121  1.0
  P  P8674  1  0.54414726  0.35787809  0.69466121  1.0
  P  P8675  1  0.54414726  0.48287809  0.69466121  1.0
  P  P8676  1  0.54414726  0.60787809  0.69466121  1.0
  P  P8677  1  0.54414726  0.73287809  0.69466121  1.0
  P  P8678  1  0.54414726  0.85787809  0.69466121  1.0
  P  P8679  1  0.54414726  0.98287809  0.69466121  1.0
  P  P8680  1  0.65525838  0.10787809  0.69466121  1.0
  P  P8681  1  0.65525838  0.23287809  0.69466121  1.0
  P  P8682  1  0.65525838  0.35787809  0.69466121  1.0
  P  P8683  1  0.65525838  0.48287809  0.69466121  1.0
  P  P8684  1  0.65525838  0.60787809  0.69466121  1.0
  P  P8685  1  0.65525838  0.73287809  0.69466121  1.0
  P  P8686  1  0.65525838  0.85787809  0.69466121  1.0
  P  P8687  1  0.65525838  0.98287809  0.69466121  1.0
  P  P8688  1  0.76636949  0.10787809  0.69466121  1.0
  P  P8689  1  0.76636949  0.23287809  0.69466121  1.0
  P  P8690  1  0.76636949  0.35787809  0.69466121  1.0
  P  P8691  1  0.76636949  0.48287809  0.69466121  1.0
  P  P8692  1  0.76636949  0.60787809  0.69466121  1.0
  P  P8693  1  0.76636949  0.73287809  0.69466121  1.0
  P  P8694  1  0.76636949  0.85787809  0.69466121  1.0
  P  P8695  1  0.76636949  0.98287809  0.69466121  1.0
  P  P8696  1  0.87748060  0.10787809  0.69466121  1.0
  P  P8697  1  0.87748060  0.23287809  0.69466121  1.0
  P  P8698  1  0.87748060  0.35787809  0.69466121  1.0
  P  P8699  1  0.87748060  0.48287809  0.69466121  1.0
  P  P8700  1  0.87748060  0.60787809  0.69466121  1.0
  P  P8701  1  0.87748060  0.73287809  0.69466121  1.0
  P  P8702  1  0.87748060  0.85787809  0.69466121  1.0
  P  P8703  1  0.87748060  0.98287809  0.69466121  1.0
  P  P8704  1  0.98859171  0.10787809  0.69466121  1.0
  P  P8705  1  0.98859171  0.23287809  0.69466121  1.0
  P  P8706  1  0.98859171  0.35787809  0.69466121  1.0
  P  P8707  1  0.98859171  0.48287809  0.69466121  1.0
  P  P8708  1  0.98859171  0.60787809  0.69466121  1.0
  P  P8709  1  0.98859171  0.73287809  0.69466121  1.0
  P  P8710  1  0.98859171  0.85787809  0.69466121  1.0
  P  P8711  1  0.98859171  0.98287809  0.69466121  1.0
  P  P8712  1  0.07324779  0.10787809  0.64704216  1.0
  P  P8713  1  0.07324779  0.23287809  0.64704216  1.0
  P  P8714  1  0.07324779  0.35787809  0.64704216  1.0
  P  P8715  1  0.07324779  0.48287809  0.64704216  1.0
  P  P8716  1  0.07324779  0.60787809  0.64704216  1.0
  P  P8717  1  0.07324779  0.73287809  0.64704216  1.0
  P  P8718  1  0.07324779  0.85787809  0.64704216  1.0
  P  P8719  1  0.07324779  0.98287809  0.64704216  1.0
  P  P8720  1  0.18435890  0.10787809  0.64704216  1.0
  P  P8721  1  0.18435890  0.23287809  0.64704216  1.0
  P  P8722  1  0.18435890  0.35787809  0.64704216  1.0
  P  P8723  1  0.18435890  0.48287809  0.64704216  1.0
  P  P8724  1  0.18435890  0.60787809  0.64704216  1.0
  P  P8725  1  0.18435890  0.73287809  0.64704216  1.0
  P  P8726  1  0.18435890  0.85787809  0.64704216  1.0
  P  P8727  1  0.18435890  0.98287809  0.64704216  1.0
  P  P8728  1  0.29547002  0.10787809  0.64704216  1.0
  P  P8729  1  0.29547002  0.23287809  0.64704216  1.0
  P  P8730  1  0.29547002  0.35787809  0.64704216  1.0
  P  P8731  1  0.29547002  0.48287809  0.64704216  1.0
  P  P8732  1  0.29547002  0.60787809  0.64704216  1.0
  P  P8733  1  0.29547002  0.73287809  0.64704216  1.0
  P  P8734  1  0.29547002  0.85787809  0.64704216  1.0
  P  P8735  1  0.29547002  0.98287809  0.64704216  1.0
  P  P8736  1  0.40658113  0.10787809  0.64704216  1.0
  P  P8737  1  0.40658113  0.23287809  0.64704216  1.0
  P  P8738  1  0.40658113  0.35787809  0.64704216  1.0
  P  P8739  1  0.40658113  0.48287809  0.64704216  1.0
  P  P8740  1  0.40658113  0.60787809  0.64704216  1.0
  P  P8741  1  0.40658113  0.73287809  0.64704216  1.0
  P  P8742  1  0.40658113  0.85787809  0.64704216  1.0
  P  P8743  1  0.40658113  0.98287809  0.64704216  1.0
  P  P8744  1  0.51769224  0.10787809  0.64704216  1.0
  P  P8745  1  0.51769224  0.23287809  0.64704216  1.0
  P  P8746  1  0.51769224  0.35787809  0.64704216  1.0
  P  P8747  1  0.51769224  0.48287809  0.64704216  1.0
  P  P8748  1  0.51769224  0.60787809  0.64704216  1.0
  P  P8749  1  0.51769224  0.73287809  0.64704216  1.0
  P  P8750  1  0.51769224  0.85787809  0.64704216  1.0
  P  P8751  1  0.51769224  0.98287809  0.64704216  1.0
  P  P8752  1  0.62880335  0.10787809  0.64704216  1.0
  P  P8753  1  0.62880335  0.23287809  0.64704216  1.0
  P  P8754  1  0.62880335  0.35787809  0.64704216  1.0
  P  P8755  1  0.62880335  0.48287809  0.64704216  1.0
  P  P8756  1  0.62880335  0.60787809  0.64704216  1.0
  P  P8757  1  0.62880335  0.73287809  0.64704216  1.0
  P  P8758  1  0.62880335  0.85787809  0.64704216  1.0
  P  P8759  1  0.62880335  0.98287809  0.64704216  1.0
  P  P8760  1  0.73991446  0.10787809  0.64704216  1.0
  P  P8761  1  0.73991446  0.23287809  0.64704216  1.0
  P  P8762  1  0.73991446  0.35787809  0.64704216  1.0
  P  P8763  1  0.73991446  0.48287809  0.64704216  1.0
  P  P8764  1  0.73991446  0.60787809  0.64704216  1.0
  P  P8765  1  0.73991446  0.73287809  0.64704216  1.0
  P  P8766  1  0.73991446  0.85787809  0.64704216  1.0
  P  P8767  1  0.73991446  0.98287809  0.64704216  1.0
  P  P8768  1  0.85102557  0.10787809  0.64704216  1.0
  P  P8769  1  0.85102557  0.23287809  0.64704216  1.0
  P  P8770  1  0.85102557  0.35787809  0.64704216  1.0
  P  P8771  1  0.85102557  0.48287809  0.64704216  1.0
  P  P8772  1  0.85102557  0.60787809  0.64704216  1.0
  P  P8773  1  0.85102557  0.73287809  0.64704216  1.0
  P  P8774  1  0.85102557  0.85787809  0.64704216  1.0
  P  P8775  1  0.85102557  0.98287809  0.64704216  1.0
  P  P8776  1  0.96213668  0.10787809  0.64704216  1.0
  P  P8777  1  0.96213668  0.23287809  0.64704216  1.0
  P  P8778  1  0.96213668  0.35787809  0.64704216  1.0
  P  P8779  1  0.96213668  0.48287809  0.64704216  1.0
  P  P8780  1  0.96213668  0.60787809  0.64704216  1.0
  P  P8781  1  0.96213668  0.73287809  0.64704216  1.0
  P  P8782  1  0.96213668  0.85787809  0.64704216  1.0
  P  P8783  1  0.96213668  0.98287809  0.64704216  1.0
  P  P8784  1  0.01504674  0.10787809  0.74228026  1.0
  P  P8785  1  0.01504674  0.23287809  0.74228026  1.0
  P  P8786  1  0.01504674  0.35787809  0.74228026  1.0
  P  P8787  1  0.01504674  0.48287809  0.74228026  1.0
  P  P8788  1  0.01504674  0.60787809  0.74228026  1.0
  P  P8789  1  0.01504674  0.73287809  0.74228026  1.0
  P  P8790  1  0.01504674  0.85787809  0.74228026  1.0
  P  P8791  1  0.01504674  0.98287809  0.74228026  1.0
  P  P8792  1  0.12615785  0.10787809  0.74228026  1.0
  P  P8793  1  0.12615785  0.23287809  0.74228026  1.0
  P  P8794  1  0.12615785  0.35787809  0.74228026  1.0
  P  P8795  1  0.12615785  0.48287809  0.74228026  1.0
  P  P8796  1  0.12615785  0.60787809  0.74228026  1.0
  P  P8797  1  0.12615785  0.73287809  0.74228026  1.0
  P  P8798  1  0.12615785  0.85787809  0.74228026  1.0
  P  P8799  1  0.12615785  0.98287809  0.74228026  1.0
  P  P8800  1  0.23726896  0.10787809  0.74228026  1.0
  P  P8801  1  0.23726896  0.23287809  0.74228026  1.0
  P  P8802  1  0.23726896  0.35787809  0.74228026  1.0
  P  P8803  1  0.23726896  0.48287809  0.74228026  1.0
  P  P8804  1  0.23726896  0.60787809  0.74228026  1.0
  P  P8805  1  0.23726896  0.73287809  0.74228026  1.0
  P  P8806  1  0.23726896  0.85787809  0.74228026  1.0
  P  P8807  1  0.23726896  0.98287809  0.74228026  1.0
  P  P8808  1  0.34838007  0.10787809  0.74228026  1.0
  P  P8809  1  0.34838007  0.23287809  0.74228026  1.0
  P  P8810  1  0.34838007  0.35787809  0.74228026  1.0
  P  P8811  1  0.34838007  0.48287809  0.74228026  1.0
  P  P8812  1  0.34838007  0.60787809  0.74228026  1.0
  P  P8813  1  0.34838007  0.73287809  0.74228026  1.0
  P  P8814  1  0.34838007  0.85787809  0.74228026  1.0
  P  P8815  1  0.34838007  0.98287809  0.74228026  1.0
  P  P8816  1  0.45949118  0.10787809  0.74228026  1.0
  P  P8817  1  0.45949118  0.23287809  0.74228026  1.0
  P  P8818  1  0.45949118  0.35787809  0.74228026  1.0
  P  P8819  1  0.45949118  0.48287809  0.74228026  1.0
  P  P8820  1  0.45949118  0.60787809  0.74228026  1.0
  P  P8821  1  0.45949118  0.73287809  0.74228026  1.0
  P  P8822  1  0.45949118  0.85787809  0.74228026  1.0
  P  P8823  1  0.45949118  0.98287809  0.74228026  1.0
  P  P8824  1  0.57060229  0.10787809  0.74228026  1.0
  P  P8825  1  0.57060229  0.23287809  0.74228026  1.0
  P  P8826  1  0.57060229  0.35787809  0.74228026  1.0
  P  P8827  1  0.57060229  0.48287809  0.74228026  1.0
  P  P8828  1  0.57060229  0.60787809  0.74228026  1.0
  P  P8829  1  0.57060229  0.73287809  0.74228026  1.0
  P  P8830  1  0.57060229  0.85787809  0.74228026  1.0
  P  P8831  1  0.57060229  0.98287809  0.74228026  1.0
  P  P8832  1  0.68171340  0.10787809  0.74228026  1.0
  P  P8833  1  0.68171340  0.23287809  0.74228026  1.0
  P  P8834  1  0.68171340  0.35787809  0.74228026  1.0
  P  P8835  1  0.68171340  0.48287809  0.74228026  1.0
  P  P8836  1  0.68171340  0.60787809  0.74228026  1.0
  P  P8837  1  0.68171340  0.73287809  0.74228026  1.0
  P  P8838  1  0.68171340  0.85787809  0.74228026  1.0
  P  P8839  1  0.68171340  0.98287809  0.74228026  1.0
  P  P8840  1  0.79282451  0.10787809  0.74228026  1.0
  P  P8841  1  0.79282451  0.23287809  0.74228026  1.0
  P  P8842  1  0.79282451  0.35787809  0.74228026  1.0
  P  P8843  1  0.79282451  0.48287809  0.74228026  1.0
  P  P8844  1  0.79282451  0.60787809  0.74228026  1.0
  P  P8845  1  0.79282451  0.73287809  0.74228026  1.0
  P  P8846  1  0.79282451  0.85787809  0.74228026  1.0
  P  P8847  1  0.79282451  0.98287809  0.74228026  1.0
  P  P8848  1  0.90393562  0.10787809  0.74228026  1.0
  P  P8849  1  0.90393562  0.23287809  0.74228026  1.0
  P  P8850  1  0.90393562  0.35787809  0.74228026  1.0
  P  P8851  1  0.90393562  0.48287809  0.74228026  1.0
  P  P8852  1  0.90393562  0.60787809  0.74228026  1.0
  P  P8853  1  0.90393562  0.73287809  0.74228026  1.0
  P  P8854  1  0.90393562  0.85787809  0.74228026  1.0
  P  P8855  1  0.90393562  0.98287809  0.74228026  1.0
  P  P8856  1  0.10135538  0.01712191  0.66248165  1.0
  P  P8857  1  0.10135538  0.14212191  0.66248165  1.0
  P  P8858  1  0.10135538  0.26712191  0.66248165  1.0
  P  P8859  1  0.10135538  0.39212191  0.66248165  1.0
  P  P8860  1  0.10135538  0.51712191  0.66248165  1.0
  P  P8861  1  0.10135538  0.64212191  0.66248165  1.0
  P  P8862  1  0.10135538  0.76712191  0.66248165  1.0
  P  P8863  1  0.10135538  0.89212191  0.66248165  1.0
  P  P8864  1  0.21246649  0.01712191  0.66248165  1.0
  P  P8865  1  0.21246649  0.14212191  0.66248165  1.0
  P  P8866  1  0.21246649  0.26712191  0.66248165  1.0
  P  P8867  1  0.21246649  0.39212191  0.66248165  1.0
  P  P8868  1  0.21246649  0.51712191  0.66248165  1.0
  P  P8869  1  0.21246649  0.64212191  0.66248165  1.0
  P  P8870  1  0.21246649  0.76712191  0.66248165  1.0
  P  P8871  1  0.21246649  0.89212191  0.66248165  1.0
  P  P8872  1  0.32357760  0.01712191  0.66248165  1.0
  P  P8873  1  0.32357760  0.14212191  0.66248165  1.0
  P  P8874  1  0.32357760  0.26712191  0.66248165  1.0
  P  P8875  1  0.32357760  0.39212191  0.66248165  1.0
  P  P8876  1  0.32357760  0.51712191  0.66248165  1.0
  P  P8877  1  0.32357760  0.64212191  0.66248165  1.0
  P  P8878  1  0.32357760  0.76712191  0.66248165  1.0
  P  P8879  1  0.32357760  0.89212191  0.66248165  1.0
  P  P8880  1  0.43468871  0.01712191  0.66248165  1.0
  P  P8881  1  0.43468871  0.14212191  0.66248165  1.0
  P  P8882  1  0.43468871  0.26712191  0.66248165  1.0
  P  P8883  1  0.43468871  0.39212191  0.66248165  1.0
  P  P8884  1  0.43468871  0.51712191  0.66248165  1.0
  P  P8885  1  0.43468871  0.64212191  0.66248165  1.0
  P  P8886  1  0.43468871  0.76712191  0.66248165  1.0
  P  P8887  1  0.43468871  0.89212191  0.66248165  1.0
  P  P8888  1  0.54579983  0.01712191  0.66248165  1.0
  P  P8889  1  0.54579983  0.14212191  0.66248165  1.0
  P  P8890  1  0.54579983  0.26712191  0.66248165  1.0
  P  P8891  1  0.54579983  0.39212191  0.66248165  1.0
  P  P8892  1  0.54579983  0.51712191  0.66248165  1.0
  P  P8893  1  0.54579983  0.64212191  0.66248165  1.0
  P  P8894  1  0.54579983  0.76712191  0.66248165  1.0
  P  P8895  1  0.54579983  0.89212191  0.66248165  1.0
  P  P8896  1  0.65691094  0.01712191  0.66248165  1.0
  P  P8897  1  0.65691094  0.14212191  0.66248165  1.0
  P  P8898  1  0.65691094  0.26712191  0.66248165  1.0
  P  P8899  1  0.65691094  0.39212191  0.66248165  1.0
  P  P8900  1  0.65691094  0.51712191  0.66248165  1.0
  P  P8901  1  0.65691094  0.64212191  0.66248165  1.0
  P  P8902  1  0.65691094  0.76712191  0.66248165  1.0
  P  P8903  1  0.65691094  0.89212191  0.66248165  1.0
  P  P8904  1  0.76802205  0.01712191  0.66248165  1.0
  P  P8905  1  0.76802205  0.14212191  0.66248165  1.0
  P  P8906  1  0.76802205  0.26712191  0.66248165  1.0
  P  P8907  1  0.76802205  0.39212191  0.66248165  1.0
  P  P8908  1  0.76802205  0.51712191  0.66248165  1.0
  P  P8909  1  0.76802205  0.64212191  0.66248165  1.0
  P  P8910  1  0.76802205  0.76712191  0.66248165  1.0
  P  P8911  1  0.76802205  0.89212191  0.66248165  1.0
  P  P8912  1  0.87913316  0.01712191  0.66248165  1.0
  P  P8913  1  0.87913316  0.14212191  0.66248165  1.0
  P  P8914  1  0.87913316  0.26712191  0.66248165  1.0
  P  P8915  1  0.87913316  0.39212191  0.66248165  1.0
  P  P8916  1  0.87913316  0.51712191  0.66248165  1.0
  P  P8917  1  0.87913316  0.64212191  0.66248165  1.0
  P  P8918  1  0.87913316  0.76712191  0.66248165  1.0
  P  P8919  1  0.87913316  0.89212191  0.66248165  1.0
  P  P8920  1  0.99024427  0.01712191  0.66248165  1.0
  P  P8921  1  0.99024427  0.14212191  0.66248165  1.0
  P  P8922  1  0.99024427  0.26712191  0.66248165  1.0
  P  P8923  1  0.99024427  0.39212191  0.66248165  1.0
  P  P8924  1  0.99024427  0.51712191  0.66248165  1.0
  P  P8925  1  0.99024427  0.64212191  0.66248165  1.0
  P  P8926  1  0.99024427  0.76712191  0.66248165  1.0
  P  P8927  1  0.99024427  0.89212191  0.66248165  1.0
  P  P8928  1  0.04315432  0.01712191  0.75771974  1.0
  P  P8929  1  0.04315432  0.14212191  0.75771974  1.0
  P  P8930  1  0.04315432  0.26712191  0.75771974  1.0
  P  P8931  1  0.04315432  0.39212191  0.75771974  1.0
  P  P8932  1  0.04315432  0.51712191  0.75771974  1.0
  P  P8933  1  0.04315432  0.64212191  0.75771974  1.0
  P  P8934  1  0.04315432  0.76712191  0.75771974  1.0
  P  P8935  1  0.04315432  0.89212191  0.75771974  1.0
  P  P8936  1  0.15426543  0.01712191  0.75771974  1.0
  P  P8937  1  0.15426543  0.14212191  0.75771974  1.0
  P  P8938  1  0.15426543  0.26712191  0.75771974  1.0
  P  P8939  1  0.15426543  0.39212191  0.75771974  1.0
  P  P8940  1  0.15426543  0.51712191  0.75771974  1.0
  P  P8941  1  0.15426543  0.64212191  0.75771974  1.0
  P  P8942  1  0.15426543  0.76712191  0.75771974  1.0
  P  P8943  1  0.15426543  0.89212191  0.75771974  1.0
  P  P8944  1  0.26537655  0.01712191  0.75771974  1.0
  P  P8945  1  0.26537655  0.14212191  0.75771974  1.0
  P  P8946  1  0.26537655  0.26712191  0.75771974  1.0
  P  P8947  1  0.26537655  0.39212191  0.75771974  1.0
  P  P8948  1  0.26537655  0.51712191  0.75771974  1.0
  P  P8949  1  0.26537655  0.64212191  0.75771974  1.0
  P  P8950  1  0.26537655  0.76712191  0.75771974  1.0
  P  P8951  1  0.26537655  0.89212191  0.75771974  1.0
  P  P8952  1  0.37648766  0.01712191  0.75771974  1.0
  P  P8953  1  0.37648766  0.14212191  0.75771974  1.0
  P  P8954  1  0.37648766  0.26712191  0.75771974  1.0
  P  P8955  1  0.37648766  0.39212191  0.75771974  1.0
  P  P8956  1  0.37648766  0.51712191  0.75771974  1.0
  P  P8957  1  0.37648766  0.64212191  0.75771974  1.0
  P  P8958  1  0.37648766  0.76712191  0.75771974  1.0
  P  P8959  1  0.37648766  0.89212191  0.75771974  1.0
  P  P8960  1  0.48759877  0.01712191  0.75771974  1.0
  P  P8961  1  0.48759877  0.14212191  0.75771974  1.0
  P  P8962  1  0.48759877  0.26712191  0.75771974  1.0
  P  P8963  1  0.48759877  0.39212191  0.75771974  1.0
  P  P8964  1  0.48759877  0.51712191  0.75771974  1.0
  P  P8965  1  0.48759877  0.64212191  0.75771974  1.0
  P  P8966  1  0.48759877  0.76712191  0.75771974  1.0
  P  P8967  1  0.48759877  0.89212191  0.75771974  1.0
  P  P8968  1  0.59870988  0.01712191  0.75771974  1.0
  P  P8969  1  0.59870988  0.14212191  0.75771974  1.0
  P  P8970  1  0.59870988  0.26712191  0.75771974  1.0
  P  P8971  1  0.59870988  0.39212191  0.75771974  1.0
  P  P8972  1  0.59870988  0.51712191  0.75771974  1.0
  P  P8973  1  0.59870988  0.64212191  0.75771974  1.0
  P  P8974  1  0.59870988  0.76712191  0.75771974  1.0
  P  P8975  1  0.59870988  0.89212191  0.75771974  1.0
  P  P8976  1  0.70982099  0.01712191  0.75771974  1.0
  P  P8977  1  0.70982099  0.14212191  0.75771974  1.0
  P  P8978  1  0.70982099  0.26712191  0.75771974  1.0
  P  P8979  1  0.70982099  0.39212191  0.75771974  1.0
  P  P8980  1  0.70982099  0.51712191  0.75771974  1.0
  P  P8981  1  0.70982099  0.64212191  0.75771974  1.0
  P  P8982  1  0.70982099  0.76712191  0.75771974  1.0
  P  P8983  1  0.70982099  0.89212191  0.75771974  1.0
  P  P8984  1  0.82093210  0.01712191  0.75771974  1.0
  P  P8985  1  0.82093210  0.14212191  0.75771974  1.0
  P  P8986  1  0.82093210  0.26712191  0.75771974  1.0
  P  P8987  1  0.82093210  0.39212191  0.75771974  1.0
  P  P8988  1  0.82093210  0.51712191  0.75771974  1.0
  P  P8989  1  0.82093210  0.64212191  0.75771974  1.0
  P  P8990  1  0.82093210  0.76712191  0.75771974  1.0
  P  P8991  1  0.82093210  0.89212191  0.75771974  1.0
  P  P8992  1  0.93204321  0.01712191  0.75771974  1.0
  P  P8993  1  0.93204321  0.14212191  0.75771974  1.0
  P  P8994  1  0.93204321  0.26712191  0.75771974  1.0
  P  P8995  1  0.93204321  0.39212191  0.75771974  1.0
  P  P8996  1  0.93204321  0.51712191  0.75771974  1.0
  P  P8997  1  0.93204321  0.64212191  0.75771974  1.0
  P  P8998  1  0.93204321  0.76712191  0.75771974  1.0
  P  P8999  1  0.93204321  0.89212191  0.75771974  1.0
  P  P9000  1  0.01669930  0.01712191  0.71010069  1.0
  P  P9001  1  0.01669930  0.14212191  0.71010069  1.0
  P  P9002  1  0.01669930  0.26712191  0.71010069  1.0
  P  P9003  1  0.01669930  0.39212191  0.71010069  1.0
  P  P9004  1  0.01669930  0.51712191  0.71010069  1.0
  P  P9005  1  0.01669930  0.64212191  0.71010069  1.0
  P  P9006  1  0.01669930  0.76712191  0.71010069  1.0
  P  P9007  1  0.01669930  0.89212191  0.71010069  1.0
  P  P9008  1  0.12781041  0.01712191  0.71010069  1.0
  P  P9009  1  0.12781041  0.14212191  0.71010069  1.0
  P  P9010  1  0.12781041  0.26712191  0.71010069  1.0
  P  P9011  1  0.12781041  0.39212191  0.71010069  1.0
  P  P9012  1  0.12781041  0.51712191  0.71010069  1.0
  P  P9013  1  0.12781041  0.64212191  0.71010069  1.0
  P  P9014  1  0.12781041  0.76712191  0.71010069  1.0
  P  P9015  1  0.12781041  0.89212191  0.71010069  1.0
  P  P9016  1  0.23892152  0.01712191  0.71010069  1.0
  P  P9017  1  0.23892152  0.14212191  0.71010069  1.0
  P  P9018  1  0.23892152  0.26712191  0.71010069  1.0
  P  P9019  1  0.23892152  0.39212191  0.71010069  1.0
  P  P9020  1  0.23892152  0.51712191  0.71010069  1.0
  P  P9021  1  0.23892152  0.64212191  0.71010069  1.0
  P  P9022  1  0.23892152  0.76712191  0.71010069  1.0
  P  P9023  1  0.23892152  0.89212191  0.71010069  1.0
  P  P9024  1  0.35003263  0.01712191  0.71010069  1.0
  P  P9025  1  0.35003263  0.14212191  0.71010069  1.0
  P  P9026  1  0.35003263  0.26712191  0.71010069  1.0
  P  P9027  1  0.35003263  0.39212191  0.71010069  1.0
  P  P9028  1  0.35003263  0.51712191  0.71010069  1.0
  P  P9029  1  0.35003263  0.64212191  0.71010069  1.0
  P  P9030  1  0.35003263  0.76712191  0.71010069  1.0
  P  P9031  1  0.35003263  0.89212191  0.71010069  1.0
  P  P9032  1  0.46114374  0.01712191  0.71010069  1.0
  P  P9033  1  0.46114374  0.14212191  0.71010069  1.0
  P  P9034  1  0.46114374  0.26712191  0.71010069  1.0
  P  P9035  1  0.46114374  0.39212191  0.71010069  1.0
  P  P9036  1  0.46114374  0.51712191  0.71010069  1.0
  P  P9037  1  0.46114374  0.64212191  0.71010069  1.0
  P  P9038  1  0.46114374  0.76712191  0.71010069  1.0
  P  P9039  1  0.46114374  0.89212191  0.71010069  1.0
  P  P9040  1  0.57225485  0.01712191  0.71010069  1.0
  P  P9041  1  0.57225485  0.14212191  0.71010069  1.0
  P  P9042  1  0.57225485  0.26712191  0.71010069  1.0
  P  P9043  1  0.57225485  0.39212191  0.71010069  1.0
  P  P9044  1  0.57225485  0.51712191  0.71010069  1.0
  P  P9045  1  0.57225485  0.64212191  0.71010069  1.0
  P  P9046  1  0.57225485  0.76712191  0.71010069  1.0
  P  P9047  1  0.57225485  0.89212191  0.71010069  1.0
  P  P9048  1  0.68336596  0.01712191  0.71010069  1.0
  P  P9049  1  0.68336596  0.14212191  0.71010069  1.0
  P  P9050  1  0.68336596  0.26712191  0.71010069  1.0
  P  P9051  1  0.68336596  0.39212191  0.71010069  1.0
  P  P9052  1  0.68336596  0.51712191  0.71010069  1.0
  P  P9053  1  0.68336596  0.64212191  0.71010069  1.0
  P  P9054  1  0.68336596  0.76712191  0.71010069  1.0
  P  P9055  1  0.68336596  0.89212191  0.71010069  1.0
  P  P9056  1  0.79447707  0.01712191  0.71010069  1.0
  P  P9057  1  0.79447707  0.14212191  0.71010069  1.0
  P  P9058  1  0.79447707  0.26712191  0.71010069  1.0
  P  P9059  1  0.79447707  0.39212191  0.71010069  1.0
  P  P9060  1  0.79447707  0.51712191  0.71010069  1.0
  P  P9061  1  0.79447707  0.64212191  0.71010069  1.0
  P  P9062  1  0.79447707  0.76712191  0.71010069  1.0
  P  P9063  1  0.79447707  0.89212191  0.71010069  1.0
  P  P9064  1  0.90558819  0.01712191  0.71010069  1.0
  P  P9065  1  0.90558819  0.14212191  0.71010069  1.0
  P  P9066  1  0.90558819  0.26712191  0.71010069  1.0
  P  P9067  1  0.90558819  0.39212191  0.71010069  1.0
  P  P9068  1  0.90558819  0.51712191  0.71010069  1.0
  P  P9069  1  0.90558819  0.64212191  0.71010069  1.0
  P  P9070  1  0.90558819  0.76712191  0.71010069  1.0
  P  P9071  1  0.90558819  0.89212191  0.71010069  1.0
  P  P9072  1  0.03091975  0.07962191  0.67085169  1.0
  P  P9073  1  0.03091975  0.20462191  0.67085169  1.0
  P  P9074  1  0.03091975  0.32962191  0.67085169  1.0
  P  P9075  1  0.03091975  0.45462191  0.67085169  1.0
  P  P9076  1  0.03091975  0.57962191  0.67085169  1.0
  P  P9077  1  0.03091975  0.70462191  0.67085169  1.0
  P  P9078  1  0.03091975  0.82962191  0.67085169  1.0
  P  P9079  1  0.03091975  0.95462191  0.67085169  1.0
  P  P9080  1  0.14203086  0.07962191  0.67085169  1.0
  P  P9081  1  0.14203086  0.20462191  0.67085169  1.0
  P  P9082  1  0.14203086  0.32962191  0.67085169  1.0
  P  P9083  1  0.14203086  0.45462191  0.67085169  1.0
  P  P9084  1  0.14203086  0.57962191  0.67085169  1.0
  P  P9085  1  0.14203086  0.70462191  0.67085169  1.0
  P  P9086  1  0.14203086  0.82962191  0.67085169  1.0
  P  P9087  1  0.14203086  0.95462191  0.67085169  1.0
  P  P9088  1  0.25314197  0.07962191  0.67085169  1.0
  P  P9089  1  0.25314197  0.20462191  0.67085169  1.0
  P  P9090  1  0.25314197  0.32962191  0.67085169  1.0
  P  P9091  1  0.25314197  0.45462191  0.67085169  1.0
  P  P9092  1  0.25314197  0.57962191  0.67085169  1.0
  P  P9093  1  0.25314197  0.70462191  0.67085169  1.0
  P  P9094  1  0.25314197  0.82962191  0.67085169  1.0
  P  P9095  1  0.25314197  0.95462191  0.67085169  1.0
  P  P9096  1  0.36425308  0.07962191  0.67085169  1.0
  P  P9097  1  0.36425308  0.20462191  0.67085169  1.0
  P  P9098  1  0.36425308  0.32962191  0.67085169  1.0
  P  P9099  1  0.36425308  0.45462191  0.67085169  1.0
  P  P9100  1  0.36425308  0.57962191  0.67085169  1.0
  P  P9101  1  0.36425308  0.70462191  0.67085169  1.0
  P  P9102  1  0.36425308  0.82962191  0.67085169  1.0
  P  P9103  1  0.36425308  0.95462191  0.67085169  1.0
  P  P9104  1  0.47536420  0.07962191  0.67085169  1.0
  P  P9105  1  0.47536420  0.20462191  0.67085169  1.0
  P  P9106  1  0.47536420  0.32962191  0.67085169  1.0
  P  P9107  1  0.47536420  0.45462191  0.67085169  1.0
  P  P9108  1  0.47536420  0.57962191  0.67085169  1.0
  P  P9109  1  0.47536420  0.70462191  0.67085169  1.0
  P  P9110  1  0.47536420  0.82962191  0.67085169  1.0
  P  P9111  1  0.47536420  0.95462191  0.67085169  1.0
  P  P9112  1  0.58647531  0.07962191  0.67085169  1.0
  P  P9113  1  0.58647531  0.20462191  0.67085169  1.0
  P  P9114  1  0.58647531  0.32962191  0.67085169  1.0
  P  P9115  1  0.58647531  0.45462191  0.67085169  1.0
  P  P9116  1  0.58647531  0.57962191  0.67085169  1.0
  P  P9117  1  0.58647531  0.70462191  0.67085169  1.0
  P  P9118  1  0.58647531  0.82962191  0.67085169  1.0
  P  P9119  1  0.58647531  0.95462191  0.67085169  1.0
  P  P9120  1  0.69758642  0.07962191  0.67085169  1.0
  P  P9121  1  0.69758642  0.20462191  0.67085169  1.0
  P  P9122  1  0.69758642  0.32962191  0.67085169  1.0
  P  P9123  1  0.69758642  0.45462191  0.67085169  1.0
  P  P9124  1  0.69758642  0.57962191  0.67085169  1.0
  P  P9125  1  0.69758642  0.70462191  0.67085169  1.0
  P  P9126  1  0.69758642  0.82962191  0.67085169  1.0
  P  P9127  1  0.69758642  0.95462191  0.67085169  1.0
  P  P9128  1  0.80869753  0.07962191  0.67085169  1.0
  P  P9129  1  0.80869753  0.20462191  0.67085169  1.0
  P  P9130  1  0.80869753  0.32962191  0.67085169  1.0
  P  P9131  1  0.80869753  0.45462191  0.67085169  1.0
  P  P9132  1  0.80869753  0.57962191  0.67085169  1.0
  P  P9133  1  0.80869753  0.70462191  0.67085169  1.0
  P  P9134  1  0.80869753  0.82962191  0.67085169  1.0
  P  P9135  1  0.80869753  0.95462191  0.67085169  1.0
  P  P9136  1  0.91980864  0.07962191  0.67085169  1.0
  P  P9137  1  0.91980864  0.20462191  0.67085169  1.0
  P  P9138  1  0.91980864  0.32962191  0.67085169  1.0
  P  P9139  1  0.91980864  0.45462191  0.67085169  1.0
  P  P9140  1  0.91980864  0.57962191  0.67085169  1.0
  P  P9141  1  0.91980864  0.70462191  0.67085169  1.0
  P  P9142  1  0.91980864  0.82962191  0.67085169  1.0
  P  P9143  1  0.91980864  0.95462191  0.67085169  1.0
  P  P9144  1  0.08382980  0.07962191  0.76608978  1.0
  P  P9145  1  0.08382980  0.20462191  0.76608978  1.0
  P  P9146  1  0.08382980  0.32962191  0.76608978  1.0
  P  P9147  1  0.08382980  0.45462191  0.76608978  1.0
  P  P9148  1  0.08382980  0.57962191  0.76608978  1.0
  P  P9149  1  0.08382980  0.70462191  0.76608978  1.0
  P  P9150  1  0.08382980  0.82962191  0.76608978  1.0
  P  P9151  1  0.08382980  0.95462191  0.76608978  1.0
  P  P9152  1  0.19494092  0.07962191  0.76608978  1.0
  P  P9153  1  0.19494092  0.20462191  0.76608978  1.0
  P  P9154  1  0.19494092  0.32962191  0.76608978  1.0
  P  P9155  1  0.19494092  0.45462191  0.76608978  1.0
  P  P9156  1  0.19494092  0.57962191  0.76608978  1.0
  P  P9157  1  0.19494092  0.70462191  0.76608978  1.0
  P  P9158  1  0.19494092  0.82962191  0.76608978  1.0
  P  P9159  1  0.19494092  0.95462191  0.76608978  1.0
  P  P9160  1  0.30605203  0.07962191  0.76608978  1.0
  P  P9161  1  0.30605203  0.20462191  0.76608978  1.0
  P  P9162  1  0.30605203  0.32962191  0.76608978  1.0
  P  P9163  1  0.30605203  0.45462191  0.76608978  1.0
  P  P9164  1  0.30605203  0.57962191  0.76608978  1.0
  P  P9165  1  0.30605203  0.70462191  0.76608978  1.0
  P  P9166  1  0.30605203  0.82962191  0.76608978  1.0
  P  P9167  1  0.30605203  0.95462191  0.76608978  1.0
  P  P9168  1  0.41716314  0.07962191  0.76608978  1.0
  P  P9169  1  0.41716314  0.20462191  0.76608978  1.0
  P  P9170  1  0.41716314  0.32962191  0.76608978  1.0
  P  P9171  1  0.41716314  0.45462191  0.76608978  1.0
  P  P9172  1  0.41716314  0.57962191  0.76608978  1.0
  P  P9173  1  0.41716314  0.70462191  0.76608978  1.0
  P  P9174  1  0.41716314  0.82962191  0.76608978  1.0
  P  P9175  1  0.41716314  0.95462191  0.76608978  1.0
  P  P9176  1  0.52827425  0.07962191  0.76608978  1.0
  P  P9177  1  0.52827425  0.20462191  0.76608978  1.0
  P  P9178  1  0.52827425  0.32962191  0.76608978  1.0
  P  P9179  1  0.52827425  0.45462191  0.76608978  1.0
  P  P9180  1  0.52827425  0.57962191  0.76608978  1.0
  P  P9181  1  0.52827425  0.70462191  0.76608978  1.0
  P  P9182  1  0.52827425  0.82962191  0.76608978  1.0
  P  P9183  1  0.52827425  0.95462191  0.76608978  1.0
  P  P9184  1  0.63938536  0.07962191  0.76608978  1.0
  P  P9185  1  0.63938536  0.20462191  0.76608978  1.0
  P  P9186  1  0.63938536  0.32962191  0.76608978  1.0
  P  P9187  1  0.63938536  0.45462191  0.76608978  1.0
  P  P9188  1  0.63938536  0.57962191  0.76608978  1.0
  P  P9189  1  0.63938536  0.70462191  0.76608978  1.0
  P  P9190  1  0.63938536  0.82962191  0.76608978  1.0
  P  P9191  1  0.63938536  0.95462191  0.76608978  1.0
  P  P9192  1  0.75049647  0.07962191  0.76608978  1.0
  P  P9193  1  0.75049647  0.20462191  0.76608978  1.0
  P  P9194  1  0.75049647  0.32962191  0.76608978  1.0
  P  P9195  1  0.75049647  0.45462191  0.76608978  1.0
  P  P9196  1  0.75049647  0.57962191  0.76608978  1.0
  P  P9197  1  0.75049647  0.70462191  0.76608978  1.0
  P  P9198  1  0.75049647  0.82962191  0.76608978  1.0
  P  P9199  1  0.75049647  0.95462191  0.76608978  1.0
  P  P9200  1  0.86160758  0.07962191  0.76608978  1.0
  P  P9201  1  0.86160758  0.20462191  0.76608978  1.0
  P  P9202  1  0.86160758  0.32962191  0.76608978  1.0
  P  P9203  1  0.86160758  0.45462191  0.76608978  1.0
  P  P9204  1  0.86160758  0.57962191  0.76608978  1.0
  P  P9205  1  0.86160758  0.70462191  0.76608978  1.0
  P  P9206  1  0.86160758  0.82962191  0.76608978  1.0
  P  P9207  1  0.86160758  0.95462191  0.76608978  1.0
  P  P9208  1  0.97271869  0.07962191  0.76608978  1.0
  P  P9209  1  0.97271869  0.20462191  0.76608978  1.0
  P  P9210  1  0.97271869  0.32962191  0.76608978  1.0
  P  P9211  1  0.97271869  0.45462191  0.76608978  1.0
  P  P9212  1  0.97271869  0.57962191  0.76608978  1.0
  P  P9213  1  0.97271869  0.70462191  0.76608978  1.0
  P  P9214  1  0.97271869  0.82962191  0.76608978  1.0
  P  P9215  1  0.97271869  0.95462191  0.76608978  1.0
  P  P9216  1  0.05737478  0.07962191  0.71847074  1.0
  P  P9217  1  0.05737478  0.20462191  0.71847074  1.0
  P  P9218  1  0.05737478  0.32962191  0.71847074  1.0
  P  P9219  1  0.05737478  0.45462191  0.71847074  1.0
  P  P9220  1  0.05737478  0.57962191  0.71847074  1.0
  P  P9221  1  0.05737478  0.70462191  0.71847074  1.0
  P  P9222  1  0.05737478  0.82962191  0.71847074  1.0
  P  P9223  1  0.05737478  0.95462191  0.71847074  1.0
  P  P9224  1  0.16848589  0.07962191  0.71847074  1.0
  P  P9225  1  0.16848589  0.20462191  0.71847074  1.0
  P  P9226  1  0.16848589  0.32962191  0.71847074  1.0
  P  P9227  1  0.16848589  0.45462191  0.71847074  1.0
  P  P9228  1  0.16848589  0.57962191  0.71847074  1.0
  P  P9229  1  0.16848589  0.70462191  0.71847074  1.0
  P  P9230  1  0.16848589  0.82962191  0.71847074  1.0
  P  P9231  1  0.16848589  0.95462191  0.71847074  1.0
  P  P9232  1  0.27959700  0.07962191  0.71847074  1.0
  P  P9233  1  0.27959700  0.20462191  0.71847074  1.0
  P  P9234  1  0.27959700  0.32962191  0.71847074  1.0
  P  P9235  1  0.27959700  0.45462191  0.71847074  1.0
  P  P9236  1  0.27959700  0.57962191  0.71847074  1.0
  P  P9237  1  0.27959700  0.70462191  0.71847074  1.0
  P  P9238  1  0.27959700  0.82962191  0.71847074  1.0
  P  P9239  1  0.27959700  0.95462191  0.71847074  1.0
  P  P9240  1  0.39070811  0.07962191  0.71847074  1.0
  P  P9241  1  0.39070811  0.20462191  0.71847074  1.0
  P  P9242  1  0.39070811  0.32962191  0.71847074  1.0
  P  P9243  1  0.39070811  0.45462191  0.71847074  1.0
  P  P9244  1  0.39070811  0.57962191  0.71847074  1.0
  P  P9245  1  0.39070811  0.70462191  0.71847074  1.0
  P  P9246  1  0.39070811  0.82962191  0.71847074  1.0
  P  P9247  1  0.39070811  0.95462191  0.71847074  1.0
  P  P9248  1  0.50181922  0.07962191  0.71847074  1.0
  P  P9249  1  0.50181922  0.20462191  0.71847074  1.0
  P  P9250  1  0.50181922  0.32962191  0.71847074  1.0
  P  P9251  1  0.50181922  0.45462191  0.71847074  1.0
  P  P9252  1  0.50181922  0.57962191  0.71847074  1.0
  P  P9253  1  0.50181922  0.70462191  0.71847074  1.0
  P  P9254  1  0.50181922  0.82962191  0.71847074  1.0
  P  P9255  1  0.50181922  0.95462191  0.71847074  1.0
  P  P9256  1  0.61293033  0.07962191  0.71847074  1.0
  P  P9257  1  0.61293033  0.20462191  0.71847074  1.0
  P  P9258  1  0.61293033  0.32962191  0.71847074  1.0
  P  P9259  1  0.61293033  0.45462191  0.71847074  1.0
  P  P9260  1  0.61293033  0.57962191  0.71847074  1.0
  P  P9261  1  0.61293033  0.70462191  0.71847074  1.0
  P  P9262  1  0.61293033  0.82962191  0.71847074  1.0
  P  P9263  1  0.61293033  0.95462191  0.71847074  1.0
  P  P9264  1  0.72404144  0.07962191  0.71847074  1.0
  P  P9265  1  0.72404144  0.20462191  0.71847074  1.0
  P  P9266  1  0.72404144  0.32962191  0.71847074  1.0
  P  P9267  1  0.72404144  0.45462191  0.71847074  1.0
  P  P9268  1  0.72404144  0.57962191  0.71847074  1.0
  P  P9269  1  0.72404144  0.70462191  0.71847074  1.0
  P  P9270  1  0.72404144  0.82962191  0.71847074  1.0
  P  P9271  1  0.72404144  0.95462191  0.71847074  1.0
  P  P9272  1  0.83515256  0.07962191  0.71847074  1.0
  P  P9273  1  0.83515256  0.20462191  0.71847074  1.0
  P  P9274  1  0.83515256  0.32962191  0.71847074  1.0
  P  P9275  1  0.83515256  0.45462191  0.71847074  1.0
  P  P9276  1  0.83515256  0.57962191  0.71847074  1.0
  P  P9277  1  0.83515256  0.70462191  0.71847074  1.0
  P  P9278  1  0.83515256  0.82962191  0.71847074  1.0
  P  P9279  1  0.83515256  0.95462191  0.71847074  1.0
  P  P9280  1  0.94626367  0.07962191  0.71847074  1.0
  P  P9281  1  0.94626367  0.20462191  0.71847074  1.0
  P  P9282  1  0.94626367  0.32962191  0.71847074  1.0
  P  P9283  1  0.94626367  0.45462191  0.71847074  1.0
  P  P9284  1  0.94626367  0.57962191  0.71847074  1.0
  P  P9285  1  0.94626367  0.70462191  0.71847074  1.0
  P  P9286  1  0.94626367  0.82962191  0.71847074  1.0
  P  P9287  1  0.94626367  0.95462191  0.71847074  1.0
  P  P9288  1  0.05902734  0.04537809  0.68629117  1.0
  P  P9289  1  0.05902734  0.17037809  0.68629117  1.0
  P  P9290  1  0.05902734  0.29537809  0.68629117  1.0
  P  P9291  1  0.05902734  0.42037809  0.68629117  1.0
  P  P9292  1  0.05902734  0.54537809  0.68629117  1.0
  P  P9293  1  0.05902734  0.67037809  0.68629117  1.0
  P  P9294  1  0.05902734  0.79537809  0.68629117  1.0
  P  P9295  1  0.05902734  0.92037809  0.68629117  1.0
  P  P9296  1  0.17013845  0.04537809  0.68629117  1.0
  P  P9297  1  0.17013845  0.17037809  0.68629117  1.0
  P  P9298  1  0.17013845  0.29537809  0.68629117  1.0
  P  P9299  1  0.17013845  0.42037809  0.68629117  1.0
  P  P9300  1  0.17013845  0.54537809  0.68629117  1.0
  P  P9301  1  0.17013845  0.67037809  0.68629117  1.0
  P  P9302  1  0.17013845  0.79537809  0.68629117  1.0
  P  P9303  1  0.17013845  0.92037809  0.68629117  1.0
  P  P9304  1  0.28124956  0.04537809  0.68629117  1.0
  P  P9305  1  0.28124956  0.17037809  0.68629117  1.0
  P  P9306  1  0.28124956  0.29537809  0.68629117  1.0
  P  P9307  1  0.28124956  0.42037809  0.68629117  1.0
  P  P9308  1  0.28124956  0.54537809  0.68629117  1.0
  P  P9309  1  0.28124956  0.67037809  0.68629117  1.0
  P  P9310  1  0.28124956  0.79537809  0.68629117  1.0
  P  P9311  1  0.28124956  0.92037809  0.68629117  1.0
  P  P9312  1  0.39236067  0.04537809  0.68629117  1.0
  P  P9313  1  0.39236067  0.17037809  0.68629117  1.0
  P  P9314  1  0.39236067  0.29537809  0.68629117  1.0
  P  P9315  1  0.39236067  0.42037809  0.68629117  1.0
  P  P9316  1  0.39236067  0.54537809  0.68629117  1.0
  P  P9317  1  0.39236067  0.67037809  0.68629117  1.0
  P  P9318  1  0.39236067  0.79537809  0.68629117  1.0
  P  P9319  1  0.39236067  0.92037809  0.68629117  1.0
  P  P9320  1  0.50347178  0.04537809  0.68629117  1.0
  P  P9321  1  0.50347178  0.17037809  0.68629117  1.0
  P  P9322  1  0.50347178  0.29537809  0.68629117  1.0
  P  P9323  1  0.50347178  0.42037809  0.68629117  1.0
  P  P9324  1  0.50347178  0.54537809  0.68629117  1.0
  P  P9325  1  0.50347178  0.67037809  0.68629117  1.0
  P  P9326  1  0.50347178  0.79537809  0.68629117  1.0
  P  P9327  1  0.50347178  0.92037809  0.68629117  1.0
  P  P9328  1  0.61458289  0.04537809  0.68629117  1.0
  P  P9329  1  0.61458289  0.17037809  0.68629117  1.0
  P  P9330  1  0.61458289  0.29537809  0.68629117  1.0
  P  P9331  1  0.61458289  0.42037809  0.68629117  1.0
  P  P9332  1  0.61458289  0.54537809  0.68629117  1.0
  P  P9333  1  0.61458289  0.67037809  0.68629117  1.0
  P  P9334  1  0.61458289  0.79537809  0.68629117  1.0
  P  P9335  1  0.61458289  0.92037809  0.68629117  1.0
  P  P9336  1  0.72569401  0.04537809  0.68629117  1.0
  P  P9337  1  0.72569401  0.17037809  0.68629117  1.0
  P  P9338  1  0.72569401  0.29537809  0.68629117  1.0
  P  P9339  1  0.72569401  0.42037809  0.68629117  1.0
  P  P9340  1  0.72569401  0.54537809  0.68629117  1.0
  P  P9341  1  0.72569401  0.67037809  0.68629117  1.0
  P  P9342  1  0.72569401  0.79537809  0.68629117  1.0
  P  P9343  1  0.72569401  0.92037809  0.68629117  1.0
  P  P9344  1  0.83680512  0.04537809  0.68629117  1.0
  P  P9345  1  0.83680512  0.17037809  0.68629117  1.0
  P  P9346  1  0.83680512  0.29537809  0.68629117  1.0
  P  P9347  1  0.83680512  0.42037809  0.68629117  1.0
  P  P9348  1  0.83680512  0.54537809  0.68629117  1.0
  P  P9349  1  0.83680512  0.67037809  0.68629117  1.0
  P  P9350  1  0.83680512  0.79537809  0.68629117  1.0
  P  P9351  1  0.83680512  0.92037809  0.68629117  1.0
  P  P9352  1  0.94791623  0.04537809  0.68629117  1.0
  P  P9353  1  0.94791623  0.17037809  0.68629117  1.0
  P  P9354  1  0.94791623  0.29537809  0.68629117  1.0
  P  P9355  1  0.94791623  0.42037809  0.68629117  1.0
  P  P9356  1  0.94791623  0.54537809  0.68629117  1.0
  P  P9357  1  0.94791623  0.67037809  0.68629117  1.0
  P  P9358  1  0.94791623  0.79537809  0.68629117  1.0
  P  P9359  1  0.94791623  0.92037809  0.68629117  1.0
  P  P9360  1  0.00082628  0.04537809  0.78152926  1.0
  P  P9361  1  0.00082628  0.17037809  0.78152926  1.0
  P  P9362  1  0.00082628  0.29537809  0.78152926  1.0
  P  P9363  1  0.00082628  0.42037809  0.78152926  1.0
  P  P9364  1  0.00082628  0.54537809  0.78152926  1.0
  P  P9365  1  0.00082628  0.67037809  0.78152926  1.0
  P  P9366  1  0.00082628  0.79537809  0.78152926  1.0
  P  P9367  1  0.00082628  0.92037809  0.78152926  1.0
  P  P9368  1  0.11193739  0.04537809  0.78152926  1.0
  P  P9369  1  0.11193739  0.17037809  0.78152926  1.0
  P  P9370  1  0.11193739  0.29537809  0.78152926  1.0
  P  P9371  1  0.11193739  0.42037809  0.78152926  1.0
  P  P9372  1  0.11193739  0.54537809  0.78152926  1.0
  P  P9373  1  0.11193739  0.67037809  0.78152926  1.0
  P  P9374  1  0.11193739  0.79537809  0.78152926  1.0
  P  P9375  1  0.11193739  0.92037809  0.78152926  1.0
  P  P9376  1  0.22304850  0.04537809  0.78152926  1.0
  P  P9377  1  0.22304850  0.17037809  0.78152926  1.0
  P  P9378  1  0.22304850  0.29537809  0.78152926  1.0
  P  P9379  1  0.22304850  0.42037809  0.78152926  1.0
  P  P9380  1  0.22304850  0.54537809  0.78152926  1.0
  P  P9381  1  0.22304850  0.67037809  0.78152926  1.0
  P  P9382  1  0.22304850  0.79537809  0.78152926  1.0
  P  P9383  1  0.22304850  0.92037809  0.78152926  1.0
  P  P9384  1  0.33415961  0.04537809  0.78152926  1.0
  P  P9385  1  0.33415961  0.17037809  0.78152926  1.0
  P  P9386  1  0.33415961  0.29537809  0.78152926  1.0
  P  P9387  1  0.33415961  0.42037809  0.78152926  1.0
  P  P9388  1  0.33415961  0.54537809  0.78152926  1.0
  P  P9389  1  0.33415961  0.67037809  0.78152926  1.0
  P  P9390  1  0.33415961  0.79537809  0.78152926  1.0
  P  P9391  1  0.33415961  0.92037809  0.78152926  1.0
  P  P9392  1  0.44527073  0.04537809  0.78152926  1.0
  P  P9393  1  0.44527073  0.17037809  0.78152926  1.0
  P  P9394  1  0.44527073  0.29537809  0.78152926  1.0
  P  P9395  1  0.44527073  0.42037809  0.78152926  1.0
  P  P9396  1  0.44527073  0.54537809  0.78152926  1.0
  P  P9397  1  0.44527073  0.67037809  0.78152926  1.0
  P  P9398  1  0.44527073  0.79537809  0.78152926  1.0
  P  P9399  1  0.44527073  0.92037809  0.78152926  1.0
  P  P9400  1  0.55638184  0.04537809  0.78152926  1.0
  P  P9401  1  0.55638184  0.17037809  0.78152926  1.0
  P  P9402  1  0.55638184  0.29537809  0.78152926  1.0
  P  P9403  1  0.55638184  0.42037809  0.78152926  1.0
  P  P9404  1  0.55638184  0.54537809  0.78152926  1.0
  P  P9405  1  0.55638184  0.67037809  0.78152926  1.0
  P  P9406  1  0.55638184  0.79537809  0.78152926  1.0
  P  P9407  1  0.55638184  0.92037809  0.78152926  1.0
  P  P9408  1  0.66749295  0.04537809  0.78152926  1.0
  P  P9409  1  0.66749295  0.17037809  0.78152926  1.0
  P  P9410  1  0.66749295  0.29537809  0.78152926  1.0
  P  P9411  1  0.66749295  0.42037809  0.78152926  1.0
  P  P9412  1  0.66749295  0.54537809  0.78152926  1.0
  P  P9413  1  0.66749295  0.67037809  0.78152926  1.0
  P  P9414  1  0.66749295  0.79537809  0.78152926  1.0
  P  P9415  1  0.66749295  0.92037809  0.78152926  1.0
  P  P9416  1  0.77860406  0.04537809  0.78152926  1.0
  P  P9417  1  0.77860406  0.17037809  0.78152926  1.0
  P  P9418  1  0.77860406  0.29537809  0.78152926  1.0
  P  P9419  1  0.77860406  0.42037809  0.78152926  1.0
  P  P9420  1  0.77860406  0.54537809  0.78152926  1.0
  P  P9421  1  0.77860406  0.67037809  0.78152926  1.0
  P  P9422  1  0.77860406  0.79537809  0.78152926  1.0
  P  P9423  1  0.77860406  0.92037809  0.78152926  1.0
  P  P9424  1  0.88971517  0.04537809  0.78152926  1.0
  P  P9425  1  0.88971517  0.17037809  0.78152926  1.0
  P  P9426  1  0.88971517  0.29537809  0.78152926  1.0
  P  P9427  1  0.88971517  0.42037809  0.78152926  1.0
  P  P9428  1  0.88971517  0.54537809  0.78152926  1.0
  P  P9429  1  0.88971517  0.67037809  0.78152926  1.0
  P  P9430  1  0.88971517  0.79537809  0.78152926  1.0
  P  P9431  1  0.88971517  0.92037809  0.78152926  1.0
  P  P9432  1  0.08548237  0.04537809  0.73391022  1.0
  P  P9433  1  0.08548237  0.17037809  0.73391022  1.0
  P  P9434  1  0.08548237  0.29537809  0.73391022  1.0
  P  P9435  1  0.08548237  0.42037809  0.73391022  1.0
  P  P9436  1  0.08548237  0.54537809  0.73391022  1.0
  P  P9437  1  0.08548237  0.67037809  0.73391022  1.0
  P  P9438  1  0.08548237  0.79537809  0.73391022  1.0
  P  P9439  1  0.08548237  0.92037809  0.73391022  1.0
  P  P9440  1  0.19659348  0.04537809  0.73391022  1.0
  P  P9441  1  0.19659348  0.17037809  0.73391022  1.0
  P  P9442  1  0.19659348  0.29537809  0.73391022  1.0
  P  P9443  1  0.19659348  0.42037809  0.73391022  1.0
  P  P9444  1  0.19659348  0.54537809  0.73391022  1.0
  P  P9445  1  0.19659348  0.67037809  0.73391022  1.0
  P  P9446  1  0.19659348  0.79537809  0.73391022  1.0
  P  P9447  1  0.19659348  0.92037809  0.73391022  1.0
  P  P9448  1  0.30770459  0.04537809  0.73391022  1.0
  P  P9449  1  0.30770459  0.17037809  0.73391022  1.0
  P  P9450  1  0.30770459  0.29537809  0.73391022  1.0
  P  P9451  1  0.30770459  0.42037809  0.73391022  1.0
  P  P9452  1  0.30770459  0.54537809  0.73391022  1.0
  P  P9453  1  0.30770459  0.67037809  0.73391022  1.0
  P  P9454  1  0.30770459  0.79537809  0.73391022  1.0
  P  P9455  1  0.30770459  0.92037809  0.73391022  1.0
  P  P9456  1  0.41881570  0.04537809  0.73391022  1.0
  P  P9457  1  0.41881570  0.17037809  0.73391022  1.0
  P  P9458  1  0.41881570  0.29537809  0.73391022  1.0
  P  P9459  1  0.41881570  0.42037809  0.73391022  1.0
  P  P9460  1  0.41881570  0.54537809  0.73391022  1.0
  P  P9461  1  0.41881570  0.67037809  0.73391022  1.0
  P  P9462  1  0.41881570  0.79537809  0.73391022  1.0
  P  P9463  1  0.41881570  0.92037809  0.73391022  1.0
  P  P9464  1  0.52992681  0.04537809  0.73391022  1.0
  P  P9465  1  0.52992681  0.17037809  0.73391022  1.0
  P  P9466  1  0.52992681  0.29537809  0.73391022  1.0
  P  P9467  1  0.52992681  0.42037809  0.73391022  1.0
  P  P9468  1  0.52992681  0.54537809  0.73391022  1.0
  P  P9469  1  0.52992681  0.67037809  0.73391022  1.0
  P  P9470  1  0.52992681  0.79537809  0.73391022  1.0
  P  P9471  1  0.52992681  0.92037809  0.73391022  1.0
  P  P9472  1  0.64103792  0.04537809  0.73391022  1.0
  P  P9473  1  0.64103792  0.17037809  0.73391022  1.0
  P  P9474  1  0.64103792  0.29537809  0.73391022  1.0
  P  P9475  1  0.64103792  0.42037809  0.73391022  1.0
  P  P9476  1  0.64103792  0.54537809  0.73391022  1.0
  P  P9477  1  0.64103792  0.67037809  0.73391022  1.0
  P  P9478  1  0.64103792  0.79537809  0.73391022  1.0
  P  P9479  1  0.64103792  0.92037809  0.73391022  1.0
  P  P9480  1  0.75214903  0.04537809  0.73391022  1.0
  P  P9481  1  0.75214903  0.17037809  0.73391022  1.0
  P  P9482  1  0.75214903  0.29537809  0.73391022  1.0
  P  P9483  1  0.75214903  0.42037809  0.73391022  1.0
  P  P9484  1  0.75214903  0.54537809  0.73391022  1.0
  P  P9485  1  0.75214903  0.67037809  0.73391022  1.0
  P  P9486  1  0.75214903  0.79537809  0.73391022  1.0
  P  P9487  1  0.75214903  0.92037809  0.73391022  1.0
  P  P9488  1  0.86326014  0.04537809  0.73391022  1.0
  P  P9489  1  0.86326014  0.17037809  0.73391022  1.0
  P  P9490  1  0.86326014  0.29537809  0.73391022  1.0
  P  P9491  1  0.86326014  0.42037809  0.73391022  1.0
  P  P9492  1  0.86326014  0.54537809  0.73391022  1.0
  P  P9493  1  0.86326014  0.67037809  0.73391022  1.0
  P  P9494  1  0.86326014  0.79537809  0.73391022  1.0
  P  P9495  1  0.86326014  0.92037809  0.73391022  1.0
  P  P9496  1  0.97437125  0.04537809  0.73391022  1.0
  P  P9497  1  0.97437125  0.17037809  0.73391022  1.0
  P  P9498  1  0.97437125  0.29537809  0.73391022  1.0
  P  P9499  1  0.97437125  0.42037809  0.73391022  1.0
  P  P9500  1  0.97437125  0.54537809  0.73391022  1.0
  P  P9501  1  0.97437125  0.67037809  0.73391022  1.0
  P  P9502  1  0.97437125  0.79537809  0.73391022  1.0
  P  P9503  1  0.97437125  0.92037809  0.73391022  1.0
  P  P9504  1  0.06176930  0.12004423  0.68474881  1.0
  P  P9505  1  0.06176930  0.24504423  0.68474881  1.0
  P  P9506  1  0.06176930  0.37004423  0.68474881  1.0
  P  P9507  1  0.06176930  0.49504423  0.68474881  1.0
  P  P9508  1  0.06176930  0.62004423  0.68474881  1.0
  P  P9509  1  0.06176930  0.74504423  0.68474881  1.0
  P  P9510  1  0.06176930  0.87004423  0.68474881  1.0
  P  P9511  1  0.06176930  0.99504423  0.68474881  1.0
  P  P9512  1  0.17288041  0.12004423  0.68474881  1.0
  P  P9513  1  0.17288041  0.24504423  0.68474881  1.0
  P  P9514  1  0.17288041  0.37004423  0.68474881  1.0
  P  P9515  1  0.17288041  0.49504423  0.68474881  1.0
  P  P9516  1  0.17288041  0.62004423  0.68474881  1.0
  P  P9517  1  0.17288041  0.74504423  0.68474881  1.0
  P  P9518  1  0.17288041  0.87004423  0.68474881  1.0
  P  P9519  1  0.17288041  0.99504423  0.68474881  1.0
  P  P9520  1  0.28399153  0.12004423  0.68474881  1.0
  P  P9521  1  0.28399153  0.24504423  0.68474881  1.0
  P  P9522  1  0.28399153  0.37004423  0.68474881  1.0
  P  P9523  1  0.28399153  0.49504423  0.68474881  1.0
  P  P9524  1  0.28399153  0.62004423  0.68474881  1.0
  P  P9525  1  0.28399153  0.74504423  0.68474881  1.0
  P  P9526  1  0.28399153  0.87004423  0.68474881  1.0
  P  P9527  1  0.28399153  0.99504423  0.68474881  1.0
  P  P9528  1  0.39510264  0.12004423  0.68474881  1.0
  P  P9529  1  0.39510264  0.24504423  0.68474881  1.0
  P  P9530  1  0.39510264  0.37004423  0.68474881  1.0
  P  P9531  1  0.39510264  0.49504423  0.68474881  1.0
  P  P9532  1  0.39510264  0.62004423  0.68474881  1.0
  P  P9533  1  0.39510264  0.74504423  0.68474881  1.0
  P  P9534  1  0.39510264  0.87004423  0.68474881  1.0
  P  P9535  1  0.39510264  0.99504423  0.68474881  1.0
  P  P9536  1  0.50621375  0.12004423  0.68474881  1.0
  P  P9537  1  0.50621375  0.24504423  0.68474881  1.0
  P  P9538  1  0.50621375  0.37004423  0.68474881  1.0
  P  P9539  1  0.50621375  0.49504423  0.68474881  1.0
  P  P9540  1  0.50621375  0.62004423  0.68474881  1.0
  P  P9541  1  0.50621375  0.74504423  0.68474881  1.0
  P  P9542  1  0.50621375  0.87004423  0.68474881  1.0
  P  P9543  1  0.50621375  0.99504423  0.68474881  1.0
  P  P9544  1  0.61732486  0.12004423  0.68474881  1.0
  P  P9545  1  0.61732486  0.24504423  0.68474881  1.0
  P  P9546  1  0.61732486  0.37004423  0.68474881  1.0
  P  P9547  1  0.61732486  0.49504423  0.68474881  1.0
  P  P9548  1  0.61732486  0.62004423  0.68474881  1.0
  P  P9549  1  0.61732486  0.74504423  0.68474881  1.0
  P  P9550  1  0.61732486  0.87004423  0.68474881  1.0
  P  P9551  1  0.61732486  0.99504423  0.68474881  1.0
  P  P9552  1  0.72843597  0.12004423  0.68474881  1.0
  P  P9553  1  0.72843597  0.24504423  0.68474881  1.0
  P  P9554  1  0.72843597  0.37004423  0.68474881  1.0
  P  P9555  1  0.72843597  0.49504423  0.68474881  1.0
  P  P9556  1  0.72843597  0.62004423  0.68474881  1.0
  P  P9557  1  0.72843597  0.74504423  0.68474881  1.0
  P  P9558  1  0.72843597  0.87004423  0.68474881  1.0
  P  P9559  1  0.72843597  0.99504423  0.68474881  1.0
  P  P9560  1  0.83954708  0.12004423  0.68474881  1.0
  P  P9561  1  0.83954708  0.24504423  0.68474881  1.0
  P  P9562  1  0.83954708  0.37004423  0.68474881  1.0
  P  P9563  1  0.83954708  0.49504423  0.68474881  1.0
  P  P9564  1  0.83954708  0.62004423  0.68474881  1.0
  P  P9565  1  0.83954708  0.74504423  0.68474881  1.0
  P  P9566  1  0.83954708  0.87004423  0.68474881  1.0
  P  P9567  1  0.83954708  0.99504423  0.68474881  1.0
  P  P9568  1  0.95065819  0.12004423  0.68474881  1.0
  P  P9569  1  0.95065819  0.24504423  0.68474881  1.0
  P  P9570  1  0.95065819  0.37004423  0.68474881  1.0
  P  P9571  1  0.95065819  0.49504423  0.68474881  1.0
  P  P9572  1  0.95065819  0.62004423  0.68474881  1.0
  P  P9573  1  0.95065819  0.74504423  0.68474881  1.0
  P  P9574  1  0.95065819  0.87004423  0.68474881  1.0
  P  P9575  1  0.95065819  0.99504423  0.68474881  1.0
  P  P9576  1  0.00356824  0.12004423  0.77998691  1.0
  P  P9577  1  0.00356824  0.24504423  0.77998691  1.0
  P  P9578  1  0.00356824  0.37004423  0.77998691  1.0
  P  P9579  1  0.00356824  0.49504423  0.77998691  1.0
  P  P9580  1  0.00356824  0.62004423  0.77998691  1.0
  P  P9581  1  0.00356824  0.74504423  0.77998691  1.0
  P  P9582  1  0.00356824  0.87004423  0.77998691  1.0
  P  P9583  1  0.00356824  0.99504423  0.77998691  1.0
  P  P9584  1  0.11467936  0.12004423  0.77998691  1.0
  P  P9585  1  0.11467936  0.24504423  0.77998691  1.0
  P  P9586  1  0.11467936  0.37004423  0.77998691  1.0
  P  P9587  1  0.11467936  0.49504423  0.77998691  1.0
  P  P9588  1  0.11467936  0.62004423  0.77998691  1.0
  P  P9589  1  0.11467936  0.74504423  0.77998691  1.0
  P  P9590  1  0.11467936  0.87004423  0.77998691  1.0
  P  P9591  1  0.11467936  0.99504423  0.77998691  1.0
  P  P9592  1  0.22579047  0.12004423  0.77998691  1.0
  P  P9593  1  0.22579047  0.24504423  0.77998691  1.0
  P  P9594  1  0.22579047  0.37004423  0.77998691  1.0
  P  P9595  1  0.22579047  0.49504423  0.77998691  1.0
  P  P9596  1  0.22579047  0.62004423  0.77998691  1.0
  P  P9597  1  0.22579047  0.74504423  0.77998691  1.0
  P  P9598  1  0.22579047  0.87004423  0.77998691  1.0
  P  P9599  1  0.22579047  0.99504423  0.77998691  1.0
  P  P9600  1  0.33690158  0.12004423  0.77998691  1.0
  P  P9601  1  0.33690158  0.24504423  0.77998691  1.0
  P  P9602  1  0.33690158  0.37004423  0.77998691  1.0
  P  P9603  1  0.33690158  0.49504423  0.77998691  1.0
  P  P9604  1  0.33690158  0.62004423  0.77998691  1.0
  P  P9605  1  0.33690158  0.74504423  0.77998691  1.0
  P  P9606  1  0.33690158  0.87004423  0.77998691  1.0
  P  P9607  1  0.33690158  0.99504423  0.77998691  1.0
  P  P9608  1  0.44801269  0.12004423  0.77998691  1.0
  P  P9609  1  0.44801269  0.24504423  0.77998691  1.0
  P  P9610  1  0.44801269  0.37004423  0.77998691  1.0
  P  P9611  1  0.44801269  0.49504423  0.77998691  1.0
  P  P9612  1  0.44801269  0.62004423  0.77998691  1.0
  P  P9613  1  0.44801269  0.74504423  0.77998691  1.0
  P  P9614  1  0.44801269  0.87004423  0.77998691  1.0
  P  P9615  1  0.44801269  0.99504423  0.77998691  1.0
  P  P9616  1  0.55912380  0.12004423  0.77998691  1.0
  P  P9617  1  0.55912380  0.24504423  0.77998691  1.0
  P  P9618  1  0.55912380  0.37004423  0.77998691  1.0
  P  P9619  1  0.55912380  0.49504423  0.77998691  1.0
  P  P9620  1  0.55912380  0.62004423  0.77998691  1.0
  P  P9621  1  0.55912380  0.74504423  0.77998691  1.0
  P  P9622  1  0.55912380  0.87004423  0.77998691  1.0
  P  P9623  1  0.55912380  0.99504423  0.77998691  1.0
  P  P9624  1  0.67023491  0.12004423  0.77998691  1.0
  P  P9625  1  0.67023491  0.24504423  0.77998691  1.0
  P  P9626  1  0.67023491  0.37004423  0.77998691  1.0
  P  P9627  1  0.67023491  0.49504423  0.77998691  1.0
  P  P9628  1  0.67023491  0.62004423  0.77998691  1.0
  P  P9629  1  0.67023491  0.74504423  0.77998691  1.0
  P  P9630  1  0.67023491  0.87004423  0.77998691  1.0
  P  P9631  1  0.67023491  0.99504423  0.77998691  1.0
  P  P9632  1  0.78134602  0.12004423  0.77998691  1.0
  P  P9633  1  0.78134602  0.24504423  0.77998691  1.0
  P  P9634  1  0.78134602  0.37004423  0.77998691  1.0
  P  P9635  1  0.78134602  0.49504423  0.77998691  1.0
  P  P9636  1  0.78134602  0.62004423  0.77998691  1.0
  P  P9637  1  0.78134602  0.74504423  0.77998691  1.0
  P  P9638  1  0.78134602  0.87004423  0.77998691  1.0
  P  P9639  1  0.78134602  0.99504423  0.77998691  1.0
  P  P9640  1  0.89245713  0.12004423  0.77998691  1.0
  P  P9641  1  0.89245713  0.24504423  0.77998691  1.0
  P  P9642  1  0.89245713  0.37004423  0.77998691  1.0
  P  P9643  1  0.89245713  0.49504423  0.77998691  1.0
  P  P9644  1  0.89245713  0.62004423  0.77998691  1.0
  P  P9645  1  0.89245713  0.74504423  0.77998691  1.0
  P  P9646  1  0.89245713  0.87004423  0.77998691  1.0
  P  P9647  1  0.89245713  0.99504423  0.77998691  1.0
  P  P9648  1  0.08822433  0.12004423  0.73236786  1.0
  P  P9649  1  0.08822433  0.24504423  0.73236786  1.0
  P  P9650  1  0.08822433  0.37004423  0.73236786  1.0
  P  P9651  1  0.08822433  0.49504423  0.73236786  1.0
  P  P9652  1  0.08822433  0.62004423  0.73236786  1.0
  P  P9653  1  0.08822433  0.74504423  0.73236786  1.0
  P  P9654  1  0.08822433  0.87004423  0.73236786  1.0
  P  P9655  1  0.08822433  0.99504423  0.73236786  1.0
  P  P9656  1  0.19933544  0.12004423  0.73236786  1.0
  P  P9657  1  0.19933544  0.24504423  0.73236786  1.0
  P  P9658  1  0.19933544  0.37004423  0.73236786  1.0
  P  P9659  1  0.19933544  0.49504423  0.73236786  1.0
  P  P9660  1  0.19933544  0.62004423  0.73236786  1.0
  P  P9661  1  0.19933544  0.74504423  0.73236786  1.0
  P  P9662  1  0.19933544  0.87004423  0.73236786  1.0
  P  P9663  1  0.19933544  0.99504423  0.73236786  1.0
  P  P9664  1  0.31044655  0.12004423  0.73236786  1.0
  P  P9665  1  0.31044655  0.24504423  0.73236786  1.0
  P  P9666  1  0.31044655  0.37004423  0.73236786  1.0
  P  P9667  1  0.31044655  0.49504423  0.73236786  1.0
  P  P9668  1  0.31044655  0.62004423  0.73236786  1.0
  P  P9669  1  0.31044655  0.74504423  0.73236786  1.0
  P  P9670  1  0.31044655  0.87004423  0.73236786  1.0
  P  P9671  1  0.31044655  0.99504423  0.73236786  1.0
  P  P9672  1  0.42155766  0.12004423  0.73236786  1.0
  P  P9673  1  0.42155766  0.24504423  0.73236786  1.0
  P  P9674  1  0.42155766  0.37004423  0.73236786  1.0
  P  P9675  1  0.42155766  0.49504423  0.73236786  1.0
  P  P9676  1  0.42155766  0.62004423  0.73236786  1.0
  P  P9677  1  0.42155766  0.74504423  0.73236786  1.0
  P  P9678  1  0.42155766  0.87004423  0.73236786  1.0
  P  P9679  1  0.42155766  0.99504423  0.73236786  1.0
  P  P9680  1  0.53266877  0.12004423  0.73236786  1.0
  P  P9681  1  0.53266877  0.24504423  0.73236786  1.0
  P  P9682  1  0.53266877  0.37004423  0.73236786  1.0
  P  P9683  1  0.53266877  0.49504423  0.73236786  1.0
  P  P9684  1  0.53266877  0.62004423  0.73236786  1.0
  P  P9685  1  0.53266877  0.74504423  0.73236786  1.0
  P  P9686  1  0.53266877  0.87004423  0.73236786  1.0
  P  P9687  1  0.53266877  0.99504423  0.73236786  1.0
  P  P9688  1  0.64377988  0.12004423  0.73236786  1.0
  P  P9689  1  0.64377988  0.24504423  0.73236786  1.0
  P  P9690  1  0.64377988  0.37004423  0.73236786  1.0
  P  P9691  1  0.64377988  0.49504423  0.73236786  1.0
  P  P9692  1  0.64377988  0.62004423  0.73236786  1.0
  P  P9693  1  0.64377988  0.74504423  0.73236786  1.0
  P  P9694  1  0.64377988  0.87004423  0.73236786  1.0
  P  P9695  1  0.64377988  0.99504423  0.73236786  1.0
  P  P9696  1  0.75489100  0.12004423  0.73236786  1.0
  P  P9697  1  0.75489100  0.24504423  0.73236786  1.0
  P  P9698  1  0.75489100  0.37004423  0.73236786  1.0
  P  P9699  1  0.75489100  0.49504423  0.73236786  1.0
  P  P9700  1  0.75489100  0.62004423  0.73236786  1.0
  P  P9701  1  0.75489100  0.74504423  0.73236786  1.0
  P  P9702  1  0.75489100  0.87004423  0.73236786  1.0
  P  P9703  1  0.75489100  0.99504423  0.73236786  1.0
  P  P9704  1  0.86600211  0.12004423  0.73236786  1.0
  P  P9705  1  0.86600211  0.24504423  0.73236786  1.0
  P  P9706  1  0.86600211  0.37004423  0.73236786  1.0
  P  P9707  1  0.86600211  0.49504423  0.73236786  1.0
  P  P9708  1  0.86600211  0.62004423  0.73236786  1.0
  P  P9709  1  0.86600211  0.74504423  0.73236786  1.0
  P  P9710  1  0.86600211  0.87004423  0.73236786  1.0
  P  P9711  1  0.86600211  0.99504423  0.73236786  1.0
  P  P9712  1  0.97711322  0.12004423  0.73236786  1.0
  P  P9713  1  0.97711322  0.24504423  0.73236786  1.0
  P  P9714  1  0.97711322  0.37004423  0.73236786  1.0
  P  P9715  1  0.97711322  0.49504423  0.73236786  1.0
  P  P9716  1  0.97711322  0.62004423  0.73236786  1.0
  P  P9717  1  0.97711322  0.74504423  0.73236786  1.0
  P  P9718  1  0.97711322  0.87004423  0.73236786  1.0
  P  P9719  1  0.97711322  0.99504423  0.73236786  1.0
  P  P9720  1  0.02817779  0.00495577  0.67239404  1.0
  P  P9721  1  0.02817779  0.12995577  0.67239404  1.0
  P  P9722  1  0.02817779  0.25495577  0.67239404  1.0
  P  P9723  1  0.02817779  0.37995577  0.67239404  1.0
  P  P9724  1  0.02817779  0.50495577  0.67239404  1.0
  P  P9725  1  0.02817779  0.62995577  0.67239404  1.0
  P  P9726  1  0.02817779  0.75495577  0.67239404  1.0
  P  P9727  1  0.02817779  0.87995577  0.67239404  1.0
  P  P9728  1  0.13928890  0.00495577  0.67239404  1.0
  P  P9729  1  0.13928890  0.12995577  0.67239404  1.0
  P  P9730  1  0.13928890  0.25495577  0.67239404  1.0
  P  P9731  1  0.13928890  0.37995577  0.67239404  1.0
  P  P9732  1  0.13928890  0.50495577  0.67239404  1.0
  P  P9733  1  0.13928890  0.62995577  0.67239404  1.0
  P  P9734  1  0.13928890  0.75495577  0.67239404  1.0
  P  P9735  1  0.13928890  0.87995577  0.67239404  1.0
  P  P9736  1  0.25040001  0.00495577  0.67239404  1.0
  P  P9737  1  0.25040001  0.12995577  0.67239404  1.0
  P  P9738  1  0.25040001  0.25495577  0.67239404  1.0
  P  P9739  1  0.25040001  0.37995577  0.67239404  1.0
  P  P9740  1  0.25040001  0.50495577  0.67239404  1.0
  P  P9741  1  0.25040001  0.62995577  0.67239404  1.0
  P  P9742  1  0.25040001  0.75495577  0.67239404  1.0
  P  P9743  1  0.25040001  0.87995577  0.67239404  1.0
  P  P9744  1  0.36151112  0.00495577  0.67239404  1.0
  P  P9745  1  0.36151112  0.12995577  0.67239404  1.0
  P  P9746  1  0.36151112  0.25495577  0.67239404  1.0
  P  P9747  1  0.36151112  0.37995577  0.67239404  1.0
  P  P9748  1  0.36151112  0.50495577  0.67239404  1.0
  P  P9749  1  0.36151112  0.62995577  0.67239404  1.0
  P  P9750  1  0.36151112  0.75495577  0.67239404  1.0
  P  P9751  1  0.36151112  0.87995577  0.67239404  1.0
  P  P9752  1  0.47262223  0.00495577  0.67239404  1.0
  P  P9753  1  0.47262223  0.12995577  0.67239404  1.0
  P  P9754  1  0.47262223  0.25495577  0.67239404  1.0
  P  P9755  1  0.47262223  0.37995577  0.67239404  1.0
  P  P9756  1  0.47262223  0.50495577  0.67239404  1.0
  P  P9757  1  0.47262223  0.62995577  0.67239404  1.0
  P  P9758  1  0.47262223  0.75495577  0.67239404  1.0
  P  P9759  1  0.47262223  0.87995577  0.67239404  1.0
  P  P9760  1  0.58373334  0.00495577  0.67239404  1.0
  P  P9761  1  0.58373334  0.12995577  0.67239404  1.0
  P  P9762  1  0.58373334  0.25495577  0.67239404  1.0
  P  P9763  1  0.58373334  0.37995577  0.67239404  1.0
  P  P9764  1  0.58373334  0.50495577  0.67239404  1.0
  P  P9765  1  0.58373334  0.62995577  0.67239404  1.0
  P  P9766  1  0.58373334  0.75495577  0.67239404  1.0
  P  P9767  1  0.58373334  0.87995577  0.67239404  1.0
  P  P9768  1  0.69484445  0.00495577  0.67239404  1.0
  P  P9769  1  0.69484445  0.12995577  0.67239404  1.0
  P  P9770  1  0.69484445  0.25495577  0.67239404  1.0
  P  P9771  1  0.69484445  0.37995577  0.67239404  1.0
  P  P9772  1  0.69484445  0.50495577  0.67239404  1.0
  P  P9773  1  0.69484445  0.62995577  0.67239404  1.0
  P  P9774  1  0.69484445  0.75495577  0.67239404  1.0
  P  P9775  1  0.69484445  0.87995577  0.67239404  1.0
  P  P9776  1  0.80595556  0.00495577  0.67239404  1.0
  P  P9777  1  0.80595556  0.12995577  0.67239404  1.0
  P  P9778  1  0.80595556  0.25495577  0.67239404  1.0
  P  P9779  1  0.80595556  0.37995577  0.67239404  1.0
  P  P9780  1  0.80595556  0.50495577  0.67239404  1.0
  P  P9781  1  0.80595556  0.62995577  0.67239404  1.0
  P  P9782  1  0.80595556  0.75495577  0.67239404  1.0
  P  P9783  1  0.80595556  0.87995577  0.67239404  1.0
  P  P9784  1  0.91706668  0.00495577  0.67239404  1.0
  P  P9785  1  0.91706668  0.12995577  0.67239404  1.0
  P  P9786  1  0.91706668  0.25495577  0.67239404  1.0
  P  P9787  1  0.91706668  0.37995577  0.67239404  1.0
  P  P9788  1  0.91706668  0.50495577  0.67239404  1.0
  P  P9789  1  0.91706668  0.62995577  0.67239404  1.0
  P  P9790  1  0.91706668  0.75495577  0.67239404  1.0
  P  P9791  1  0.91706668  0.87995577  0.67239404  1.0
  P  P9792  1  0.08108784  0.00495577  0.76763214  1.0
  P  P9793  1  0.08108784  0.12995577  0.76763214  1.0
  P  P9794  1  0.08108784  0.25495577  0.76763214  1.0
  P  P9795  1  0.08108784  0.37995577  0.76763214  1.0
  P  P9796  1  0.08108784  0.50495577  0.76763214  1.0
  P  P9797  1  0.08108784  0.62995577  0.76763214  1.0
  P  P9798  1  0.08108784  0.75495577  0.76763214  1.0
  P  P9799  1  0.08108784  0.87995577  0.76763214  1.0
  P  P9800  1  0.19219895  0.00495577  0.76763214  1.0
  P  P9801  1  0.19219895  0.12995577  0.76763214  1.0
  P  P9802  1  0.19219895  0.25495577  0.76763214  1.0
  P  P9803  1  0.19219895  0.37995577  0.76763214  1.0
  P  P9804  1  0.19219895  0.50495577  0.76763214  1.0
  P  P9805  1  0.19219895  0.62995577  0.76763214  1.0
  P  P9806  1  0.19219895  0.75495577  0.76763214  1.0
  P  P9807  1  0.19219895  0.87995577  0.76763214  1.0
  P  P9808  1  0.30331006  0.00495577  0.76763214  1.0
  P  P9809  1  0.30331006  0.12995577  0.76763214  1.0
  P  P9810  1  0.30331006  0.25495577  0.76763214  1.0
  P  P9811  1  0.30331006  0.37995577  0.76763214  1.0
  P  P9812  1  0.30331006  0.50495577  0.76763214  1.0
  P  P9813  1  0.30331006  0.62995577  0.76763214  1.0
  P  P9814  1  0.30331006  0.75495577  0.76763214  1.0
  P  P9815  1  0.30331006  0.87995577  0.76763214  1.0
  P  P9816  1  0.41442117  0.00495577  0.76763214  1.0
  P  P9817  1  0.41442117  0.12995577  0.76763214  1.0
  P  P9818  1  0.41442117  0.25495577  0.76763214  1.0
  P  P9819  1  0.41442117  0.37995577  0.76763214  1.0
  P  P9820  1  0.41442117  0.50495577  0.76763214  1.0
  P  P9821  1  0.41442117  0.62995577  0.76763214  1.0
  P  P9822  1  0.41442117  0.75495577  0.76763214  1.0
  P  P9823  1  0.41442117  0.87995577  0.76763214  1.0
  P  P9824  1  0.52553228  0.00495577  0.76763214  1.0
  P  P9825  1  0.52553228  0.12995577  0.76763214  1.0
  P  P9826  1  0.52553228  0.25495577  0.76763214  1.0
  P  P9827  1  0.52553228  0.37995577  0.76763214  1.0
  P  P9828  1  0.52553228  0.50495577  0.76763214  1.0
  P  P9829  1  0.52553228  0.62995577  0.76763214  1.0
  P  P9830  1  0.52553228  0.75495577  0.76763214  1.0
  P  P9831  1  0.52553228  0.87995577  0.76763214  1.0
  P  P9832  1  0.63664340  0.00495577  0.76763214  1.0
  P  P9833  1  0.63664340  0.12995577  0.76763214  1.0
  P  P9834  1  0.63664340  0.25495577  0.76763214  1.0
  P  P9835  1  0.63664340  0.37995577  0.76763214  1.0
  P  P9836  1  0.63664340  0.50495577  0.76763214  1.0
  P  P9837  1  0.63664340  0.62995577  0.76763214  1.0
  P  P9838  1  0.63664340  0.75495577  0.76763214  1.0
  P  P9839  1  0.63664340  0.87995577  0.76763214  1.0
  P  P9840  1  0.74775451  0.00495577  0.76763214  1.0
  P  P9841  1  0.74775451  0.12995577  0.76763214  1.0
  P  P9842  1  0.74775451  0.25495577  0.76763214  1.0
  P  P9843  1  0.74775451  0.37995577  0.76763214  1.0
  P  P9844  1  0.74775451  0.50495577  0.76763214  1.0
  P  P9845  1  0.74775451  0.62995577  0.76763214  1.0
  P  P9846  1  0.74775451  0.75495577  0.76763214  1.0
  P  P9847  1  0.74775451  0.87995577  0.76763214  1.0
  P  P9848  1  0.85886562  0.00495577  0.76763214  1.0
  P  P9849  1  0.85886562  0.12995577  0.76763214  1.0
  P  P9850  1  0.85886562  0.25495577  0.76763214  1.0
  P  P9851  1  0.85886562  0.37995577  0.76763214  1.0
  P  P9852  1  0.85886562  0.50495577  0.76763214  1.0
  P  P9853  1  0.85886562  0.62995577  0.76763214  1.0
  P  P9854  1  0.85886562  0.75495577  0.76763214  1.0
  P  P9855  1  0.85886562  0.87995577  0.76763214  1.0
  P  P9856  1  0.96997673  0.00495577  0.76763214  1.0
  P  P9857  1  0.96997673  0.12995577  0.76763214  1.0
  P  P9858  1  0.96997673  0.25495577  0.76763214  1.0
  P  P9859  1  0.96997673  0.37995577  0.76763214  1.0
  P  P9860  1  0.96997673  0.50495577  0.76763214  1.0
  P  P9861  1  0.96997673  0.62995577  0.76763214  1.0
  P  P9862  1  0.96997673  0.75495577  0.76763214  1.0
  P  P9863  1  0.96997673  0.87995577  0.76763214  1.0
  P  P9864  1  0.05463281  0.00495577  0.72001309  1.0
  P  P9865  1  0.05463281  0.12995577  0.72001309  1.0
  P  P9866  1  0.05463281  0.25495577  0.72001309  1.0
  P  P9867  1  0.05463281  0.37995577  0.72001309  1.0
  P  P9868  1  0.05463281  0.50495577  0.72001309  1.0
  P  P9869  1  0.05463281  0.62995577  0.72001309  1.0
  P  P9870  1  0.05463281  0.75495577  0.72001309  1.0
  P  P9871  1  0.05463281  0.87995577  0.72001309  1.0
  P  P9872  1  0.16574392  0.00495577  0.72001309  1.0
  P  P9873  1  0.16574392  0.12995577  0.72001309  1.0
  P  P9874  1  0.16574392  0.25495577  0.72001309  1.0
  P  P9875  1  0.16574392  0.37995577  0.72001309  1.0
  P  P9876  1  0.16574392  0.50495577  0.72001309  1.0
  P  P9877  1  0.16574392  0.62995577  0.72001309  1.0
  P  P9878  1  0.16574392  0.75495577  0.72001309  1.0
  P  P9879  1  0.16574392  0.87995577  0.72001309  1.0
  P  P9880  1  0.27685504  0.00495577  0.72001309  1.0
  P  P9881  1  0.27685504  0.12995577  0.72001309  1.0
  P  P9882  1  0.27685504  0.25495577  0.72001309  1.0
  P  P9883  1  0.27685504  0.37995577  0.72001309  1.0
  P  P9884  1  0.27685504  0.50495577  0.72001309  1.0
  P  P9885  1  0.27685504  0.62995577  0.72001309  1.0
  P  P9886  1  0.27685504  0.75495577  0.72001309  1.0
  P  P9887  1  0.27685504  0.87995577  0.72001309  1.0
  P  P9888  1  0.38796615  0.00495577  0.72001309  1.0
  P  P9889  1  0.38796615  0.12995577  0.72001309  1.0
  P  P9890  1  0.38796615  0.25495577  0.72001309  1.0
  P  P9891  1  0.38796615  0.37995577  0.72001309  1.0
  P  P9892  1  0.38796615  0.50495577  0.72001309  1.0
  P  P9893  1  0.38796615  0.62995577  0.72001309  1.0
  P  P9894  1  0.38796615  0.75495577  0.72001309  1.0
  P  P9895  1  0.38796615  0.87995577  0.72001309  1.0
  P  P9896  1  0.49907726  0.00495577  0.72001309  1.0
  P  P9897  1  0.49907726  0.12995577  0.72001309  1.0
  P  P9898  1  0.49907726  0.25495577  0.72001309  1.0
  P  P9899  1  0.49907726  0.37995577  0.72001309  1.0
  P  P9900  1  0.49907726  0.50495577  0.72001309  1.0
  P  P9901  1  0.49907726  0.62995577  0.72001309  1.0
  P  P9902  1  0.49907726  0.75495577  0.72001309  1.0
  P  P9903  1  0.49907726  0.87995577  0.72001309  1.0
  P  P9904  1  0.61018837  0.00495577  0.72001309  1.0
  P  P9905  1  0.61018837  0.12995577  0.72001309  1.0
  P  P9906  1  0.61018837  0.25495577  0.72001309  1.0
  P  P9907  1  0.61018837  0.37995577  0.72001309  1.0
  P  P9908  1  0.61018837  0.50495577  0.72001309  1.0
  P  P9909  1  0.61018837  0.62995577  0.72001309  1.0
  P  P9910  1  0.61018837  0.75495577  0.72001309  1.0
  P  P9911  1  0.61018837  0.87995577  0.72001309  1.0
  P  P9912  1  0.72129948  0.00495577  0.72001309  1.0
  P  P9913  1  0.72129948  0.12995577  0.72001309  1.0
  P  P9914  1  0.72129948  0.25495577  0.72001309  1.0
  P  P9915  1  0.72129948  0.37995577  0.72001309  1.0
  P  P9916  1  0.72129948  0.50495577  0.72001309  1.0
  P  P9917  1  0.72129948  0.62995577  0.72001309  1.0
  P  P9918  1  0.72129948  0.75495577  0.72001309  1.0
  P  P9919  1  0.72129948  0.87995577  0.72001309  1.0
  P  P9920  1  0.83241059  0.00495577  0.72001309  1.0
  P  P9921  1  0.83241059  0.12995577  0.72001309  1.0
  P  P9922  1  0.83241059  0.25495577  0.72001309  1.0
  P  P9923  1  0.83241059  0.37995577  0.72001309  1.0
  P  P9924  1  0.83241059  0.50495577  0.72001309  1.0
  P  P9925  1  0.83241059  0.62995577  0.72001309  1.0
  P  P9926  1  0.83241059  0.75495577  0.72001309  1.0
  P  P9927  1  0.83241059  0.87995577  0.72001309  1.0
  P  P9928  1  0.94352170  0.00495577  0.72001309  1.0
  P  P9929  1  0.94352170  0.12995577  0.72001309  1.0
  P  P9930  1  0.94352170  0.25495577  0.72001309  1.0
  P  P9931  1  0.94352170  0.37995577  0.72001309  1.0
  P  P9932  1  0.94352170  0.50495577  0.72001309  1.0
  P  P9933  1  0.94352170  0.62995577  0.72001309  1.0
  P  P9934  1  0.94352170  0.75495577  0.72001309  1.0
  P  P9935  1  0.94352170  0.87995577  0.72001309  1.0
  P  P9936  1  0.10409735  0.06745577  0.66093929  1.0
  P  P9937  1  0.10409735  0.19245577  0.66093929  1.0
  P  P9938  1  0.10409735  0.31745577  0.66093929  1.0
  P  P9939  1  0.10409735  0.44245577  0.66093929  1.0
  P  P9940  1  0.10409735  0.56745577  0.66093929  1.0
  P  P9941  1  0.10409735  0.69245577  0.66093929  1.0
  P  P9942  1  0.10409735  0.81745577  0.66093929  1.0
  P  P9943  1  0.10409735  0.94245577  0.66093929  1.0
  P  P9944  1  0.21520846  0.06745577  0.66093929  1.0
  P  P9945  1  0.21520846  0.19245577  0.66093929  1.0
  P  P9946  1  0.21520846  0.31745577  0.66093929  1.0
  P  P9947  1  0.21520846  0.44245577  0.66093929  1.0
  P  P9948  1  0.21520846  0.56745577  0.66093929  1.0
  P  P9949  1  0.21520846  0.69245577  0.66093929  1.0
  P  P9950  1  0.21520846  0.81745577  0.66093929  1.0
  P  P9951  1  0.21520846  0.94245577  0.66093929  1.0
  P  P9952  1  0.32631957  0.06745577  0.66093929  1.0
  P  P9953  1  0.32631957  0.19245577  0.66093929  1.0
  P  P9954  1  0.32631957  0.31745577  0.66093929  1.0
  P  P9955  1  0.32631957  0.44245577  0.66093929  1.0
  P  P9956  1  0.32631957  0.56745577  0.66093929  1.0
  P  P9957  1  0.32631957  0.69245577  0.66093929  1.0
  P  P9958  1  0.32631957  0.81745577  0.66093929  1.0
  P  P9959  1  0.32631957  0.94245577  0.66093929  1.0
  P  P9960  1  0.43743068  0.06745577  0.66093929  1.0
  P  P9961  1  0.43743068  0.19245577  0.66093929  1.0
  P  P9962  1  0.43743068  0.31745577  0.66093929  1.0
  P  P9963  1  0.43743068  0.44245577  0.66093929  1.0
  P  P9964  1  0.43743068  0.56745577  0.66093929  1.0
  P  P9965  1  0.43743068  0.69245577  0.66093929  1.0
  P  P9966  1  0.43743068  0.81745577  0.66093929  1.0
  P  P9967  1  0.43743068  0.94245577  0.66093929  1.0
  P  P9968  1  0.54854179  0.06745577  0.66093929  1.0
  P  P9969  1  0.54854179  0.19245577  0.66093929  1.0
  P  P9970  1  0.54854179  0.31745577  0.66093929  1.0
  P  P9971  1  0.54854179  0.44245577  0.66093929  1.0
  P  P9972  1  0.54854179  0.56745577  0.66093929  1.0
  P  P9973  1  0.54854179  0.69245577  0.66093929  1.0
  P  P9974  1  0.54854179  0.81745577  0.66093929  1.0
  P  P9975  1  0.54854179  0.94245577  0.66093929  1.0
  P  P9976  1  0.65965290  0.06745577  0.66093929  1.0
  P  P9977  1  0.65965290  0.19245577  0.66093929  1.0
  P  P9978  1  0.65965290  0.31745577  0.66093929  1.0
  P  P9979  1  0.65965290  0.44245577  0.66093929  1.0
  P  P9980  1  0.65965290  0.56745577  0.66093929  1.0
  P  P9981  1  0.65965290  0.69245577  0.66093929  1.0
  P  P9982  1  0.65965290  0.81745577  0.66093929  1.0
  P  P9983  1  0.65965290  0.94245577  0.66093929  1.0
  P  P9984  1  0.77076401  0.06745577  0.66093929  1.0
  P  P9985  1  0.77076401  0.19245577  0.66093929  1.0
  P  P9986  1  0.77076401  0.31745577  0.66093929  1.0
  P  P9987  1  0.77076401  0.44245577  0.66093929  1.0
  P  P9988  1  0.77076401  0.56745577  0.66093929  1.0
  P  P9989  1  0.77076401  0.69245577  0.66093929  1.0
  P  P9990  1  0.77076401  0.81745577  0.66093929  1.0
  P  P9991  1  0.77076401  0.94245577  0.66093929  1.0
  P  P9992  1  0.88187512  0.06745577  0.66093929  1.0
  P  P9993  1  0.88187512  0.19245577  0.66093929  1.0
  P  P9994  1  0.88187512  0.31745577  0.66093929  1.0
  P  P9995  1  0.88187512  0.44245577  0.66093929  1.0
  P  P9996  1  0.88187512  0.56745577  0.66093929  1.0
  P  P9997  1  0.88187512  0.69245577  0.66093929  1.0
  P  P9998  1  0.88187512  0.81745577  0.66093929  1.0
  P  P9999  1  0.88187512  0.94245577  0.66093929  1.0
  P  P10000  1  0.99298623  0.06745577  0.66093929  1.0
  P  P10001  1  0.99298623  0.19245577  0.66093929  1.0
  P  P10002  1  0.99298623  0.31745577  0.66093929  1.0
  P  P10003  1  0.99298623  0.44245577  0.66093929  1.0
  P  P10004  1  0.99298623  0.56745577  0.66093929  1.0
  P  P10005  1  0.99298623  0.69245577  0.66093929  1.0
  P  P10006  1  0.99298623  0.81745577  0.66093929  1.0
  P  P10007  1  0.99298623  0.94245577  0.66093929  1.0
  P  P10008  1  0.04589629  0.06745577  0.75617739  1.0
  P  P10009  1  0.04589629  0.19245577  0.75617739  1.0
  P  P10010  1  0.04589629  0.31745577  0.75617739  1.0
  P  P10011  1  0.04589629  0.44245577  0.75617739  1.0
  P  P10012  1  0.04589629  0.56745577  0.75617739  1.0
  P  P10013  1  0.04589629  0.69245577  0.75617739  1.0
  P  P10014  1  0.04589629  0.81745577  0.75617739  1.0
  P  P10015  1  0.04589629  0.94245577  0.75617739  1.0
  P  P10016  1  0.15700740  0.06745577  0.75617739  1.0
  P  P10017  1  0.15700740  0.19245577  0.75617739  1.0
  P  P10018  1  0.15700740  0.31745577  0.75617739  1.0
  P  P10019  1  0.15700740  0.44245577  0.75617739  1.0
  P  P10020  1  0.15700740  0.56745577  0.75617739  1.0
  P  P10021  1  0.15700740  0.69245577  0.75617739  1.0
  P  P10022  1  0.15700740  0.81745577  0.75617739  1.0
  P  P10023  1  0.15700740  0.94245577  0.75617739  1.0
  P  P10024  1  0.26811851  0.06745577  0.75617739  1.0
  P  P10025  1  0.26811851  0.19245577  0.75617739  1.0
  P  P10026  1  0.26811851  0.31745577  0.75617739  1.0
  P  P10027  1  0.26811851  0.44245577  0.75617739  1.0
  P  P10028  1  0.26811851  0.56745577  0.75617739  1.0
  P  P10029  1  0.26811851  0.69245577  0.75617739  1.0
  P  P10030  1  0.26811851  0.81745577  0.75617739  1.0
  P  P10031  1  0.26811851  0.94245577  0.75617739  1.0
  P  P10032  1  0.37922962  0.06745577  0.75617739  1.0
  P  P10033  1  0.37922962  0.19245577  0.75617739  1.0
  P  P10034  1  0.37922962  0.31745577  0.75617739  1.0
  P  P10035  1  0.37922962  0.44245577  0.75617739  1.0
  P  P10036  1  0.37922962  0.56745577  0.75617739  1.0
  P  P10037  1  0.37922962  0.69245577  0.75617739  1.0
  P  P10038  1  0.37922962  0.81745577  0.75617739  1.0
  P  P10039  1  0.37922962  0.94245577  0.75617739  1.0
  P  P10040  1  0.49034073  0.06745577  0.75617739  1.0
  P  P10041  1  0.49034073  0.19245577  0.75617739  1.0
  P  P10042  1  0.49034073  0.31745577  0.75617739  1.0
  P  P10043  1  0.49034073  0.44245577  0.75617739  1.0
  P  P10044  1  0.49034073  0.56745577  0.75617739  1.0
  P  P10045  1  0.49034073  0.69245577  0.75617739  1.0
  P  P10046  1  0.49034073  0.81745577  0.75617739  1.0
  P  P10047  1  0.49034073  0.94245577  0.75617739  1.0
  P  P10048  1  0.60145184  0.06745577  0.75617739  1.0
  P  P10049  1  0.60145184  0.19245577  0.75617739  1.0
  P  P10050  1  0.60145184  0.31745577  0.75617739  1.0
  P  P10051  1  0.60145184  0.44245577  0.75617739  1.0
  P  P10052  1  0.60145184  0.56745577  0.75617739  1.0
  P  P10053  1  0.60145184  0.69245577  0.75617739  1.0
  P  P10054  1  0.60145184  0.81745577  0.75617739  1.0
  P  P10055  1  0.60145184  0.94245577  0.75617739  1.0
  P  P10056  1  0.71256295  0.06745577  0.75617739  1.0
  P  P10057  1  0.71256295  0.19245577  0.75617739  1.0
  P  P10058  1  0.71256295  0.31745577  0.75617739  1.0
  P  P10059  1  0.71256295  0.44245577  0.75617739  1.0
  P  P10060  1  0.71256295  0.56745577  0.75617739  1.0
  P  P10061  1  0.71256295  0.69245577  0.75617739  1.0
  P  P10062  1  0.71256295  0.81745577  0.75617739  1.0
  P  P10063  1  0.71256295  0.94245577  0.75617739  1.0
  P  P10064  1  0.82367406  0.06745577  0.75617739  1.0
  P  P10065  1  0.82367406  0.19245577  0.75617739  1.0
  P  P10066  1  0.82367406  0.31745577  0.75617739  1.0
  P  P10067  1  0.82367406  0.44245577  0.75617739  1.0
  P  P10068  1  0.82367406  0.56745577  0.75617739  1.0
  P  P10069  1  0.82367406  0.69245577  0.75617739  1.0
  P  P10070  1  0.82367406  0.81745577  0.75617739  1.0
  P  P10071  1  0.82367406  0.94245577  0.75617739  1.0
  P  P10072  1  0.93478518  0.06745577  0.75617739  1.0
  P  P10073  1  0.93478518  0.19245577  0.75617739  1.0
  P  P10074  1  0.93478518  0.31745577  0.75617739  1.0
  P  P10075  1  0.93478518  0.44245577  0.75617739  1.0
  P  P10076  1  0.93478518  0.56745577  0.75617739  1.0
  P  P10077  1  0.93478518  0.69245577  0.75617739  1.0
  P  P10078  1  0.93478518  0.81745577  0.75617739  1.0
  P  P10079  1  0.93478518  0.94245577  0.75617739  1.0
  P  P10080  1  0.01944126  0.06745577  0.70855834  1.0
  P  P10081  1  0.01944126  0.19245577  0.70855834  1.0
  P  P10082  1  0.01944126  0.31745577  0.70855834  1.0
  P  P10083  1  0.01944126  0.44245577  0.70855834  1.0
  P  P10084  1  0.01944126  0.56745577  0.70855834  1.0
  P  P10085  1  0.01944126  0.69245577  0.70855834  1.0
  P  P10086  1  0.01944126  0.81745577  0.70855834  1.0
  P  P10087  1  0.01944126  0.94245577  0.70855834  1.0
  P  P10088  1  0.13055237  0.06745577  0.70855834  1.0
  P  P10089  1  0.13055237  0.19245577  0.70855834  1.0
  P  P10090  1  0.13055237  0.31745577  0.70855834  1.0
  P  P10091  1  0.13055237  0.44245577  0.70855834  1.0
  P  P10092  1  0.13055237  0.56745577  0.70855834  1.0
  P  P10093  1  0.13055237  0.69245577  0.70855834  1.0
  P  P10094  1  0.13055237  0.81745577  0.70855834  1.0
  P  P10095  1  0.13055237  0.94245577  0.70855834  1.0
  P  P10096  1  0.24166348  0.06745577  0.70855834  1.0
  P  P10097  1  0.24166348  0.19245577  0.70855834  1.0
  P  P10098  1  0.24166348  0.31745577  0.70855834  1.0
  P  P10099  1  0.24166348  0.44245577  0.70855834  1.0
  P  P10100  1  0.24166348  0.56745577  0.70855834  1.0
  P  P10101  1  0.24166348  0.69245577  0.70855834  1.0
  P  P10102  1  0.24166348  0.81745577  0.70855834  1.0
  P  P10103  1  0.24166348  0.94245577  0.70855834  1.0
  P  P10104  1  0.35277459  0.06745577  0.70855834  1.0
  P  P10105  1  0.35277459  0.19245577  0.70855834  1.0
  P  P10106  1  0.35277459  0.31745577  0.70855834  1.0
  P  P10107  1  0.35277459  0.44245577  0.70855834  1.0
  P  P10108  1  0.35277459  0.56745577  0.70855834  1.0
  P  P10109  1  0.35277459  0.69245577  0.70855834  1.0
  P  P10110  1  0.35277459  0.81745577  0.70855834  1.0
  P  P10111  1  0.35277459  0.94245577  0.70855834  1.0
  P  P10112  1  0.46388570  0.06745577  0.70855834  1.0
  P  P10113  1  0.46388570  0.19245577  0.70855834  1.0
  P  P10114  1  0.46388570  0.31745577  0.70855834  1.0
  P  P10115  1  0.46388570  0.44245577  0.70855834  1.0
  P  P10116  1  0.46388570  0.56745577  0.70855834  1.0
  P  P10117  1  0.46388570  0.69245577  0.70855834  1.0
  P  P10118  1  0.46388570  0.81745577  0.70855834  1.0
  P  P10119  1  0.46388570  0.94245577  0.70855834  1.0
  P  P10120  1  0.57499682  0.06745577  0.70855834  1.0
  P  P10121  1  0.57499682  0.19245577  0.70855834  1.0
  P  P10122  1  0.57499682  0.31745577  0.70855834  1.0
  P  P10123  1  0.57499682  0.44245577  0.70855834  1.0
  P  P10124  1  0.57499682  0.56745577  0.70855834  1.0
  P  P10125  1  0.57499682  0.69245577  0.70855834  1.0
  P  P10126  1  0.57499682  0.81745577  0.70855834  1.0
  P  P10127  1  0.57499682  0.94245577  0.70855834  1.0
  P  P10128  1  0.68610793  0.06745577  0.70855834  1.0
  P  P10129  1  0.68610793  0.19245577  0.70855834  1.0
  P  P10130  1  0.68610793  0.31745577  0.70855834  1.0
  P  P10131  1  0.68610793  0.44245577  0.70855834  1.0
  P  P10132  1  0.68610793  0.56745577  0.70855834  1.0
  P  P10133  1  0.68610793  0.69245577  0.70855834  1.0
  P  P10134  1  0.68610793  0.81745577  0.70855834  1.0
  P  P10135  1  0.68610793  0.94245577  0.70855834  1.0
  P  P10136  1  0.79721904  0.06745577  0.70855834  1.0
  P  P10137  1  0.79721904  0.19245577  0.70855834  1.0
  P  P10138  1  0.79721904  0.31745577  0.70855834  1.0
  P  P10139  1  0.79721904  0.44245577  0.70855834  1.0
  P  P10140  1  0.79721904  0.56745577  0.70855834  1.0
  P  P10141  1  0.79721904  0.69245577  0.70855834  1.0
  P  P10142  1  0.79721904  0.81745577  0.70855834  1.0
  P  P10143  1  0.79721904  0.94245577  0.70855834  1.0
  P  P10144  1  0.90833015  0.06745577  0.70855834  1.0
  P  P10145  1  0.90833015  0.19245577  0.70855834  1.0
  P  P10146  1  0.90833015  0.31745577  0.70855834  1.0
  P  P10147  1  0.90833015  0.44245577  0.70855834  1.0
  P  P10148  1  0.90833015  0.56745577  0.70855834  1.0
  P  P10149  1  0.90833015  0.69245577  0.70855834  1.0
  P  P10150  1  0.90833015  0.81745577  0.70855834  1.0
  P  P10151  1  0.90833015  0.94245577  0.70855834  1.0
  P  P10152  1  0.09696086  0.05754423  0.69620357  1.0
  P  P10153  1  0.09696086  0.18254423  0.69620357  1.0
  P  P10154  1  0.09696086  0.30754423  0.69620357  1.0
  P  P10155  1  0.09696086  0.43254423  0.69620357  1.0
  P  P10156  1  0.09696086  0.55754423  0.69620357  1.0
  P  P10157  1  0.09696086  0.68254423  0.69620357  1.0
  P  P10158  1  0.09696086  0.80754423  0.69620357  1.0
  P  P10159  1  0.09696086  0.93254423  0.69620357  1.0
  P  P10160  1  0.20807197  0.05754423  0.69620357  1.0
  P  P10161  1  0.20807197  0.18254423  0.69620357  1.0
  P  P10162  1  0.20807197  0.30754423  0.69620357  1.0
  P  P10163  1  0.20807197  0.43254423  0.69620357  1.0
  P  P10164  1  0.20807197  0.55754423  0.69620357  1.0
  P  P10165  1  0.20807197  0.68254423  0.69620357  1.0
  P  P10166  1  0.20807197  0.80754423  0.69620357  1.0
  P  P10167  1  0.20807197  0.93254423  0.69620357  1.0
  P  P10168  1  0.31918308  0.05754423  0.69620357  1.0
  P  P10169  1  0.31918308  0.18254423  0.69620357  1.0
  P  P10170  1  0.31918308  0.30754423  0.69620357  1.0
  P  P10171  1  0.31918308  0.43254423  0.69620357  1.0
  P  P10172  1  0.31918308  0.55754423  0.69620357  1.0
  P  P10173  1  0.31918308  0.68254423  0.69620357  1.0
  P  P10174  1  0.31918308  0.80754423  0.69620357  1.0
  P  P10175  1  0.31918308  0.93254423  0.69620357  1.0
  P  P10176  1  0.43029419  0.05754423  0.69620357  1.0
  P  P10177  1  0.43029419  0.18254423  0.69620357  1.0
  P  P10178  1  0.43029419  0.30754423  0.69620357  1.0
  P  P10179  1  0.43029419  0.43254423  0.69620357  1.0
  P  P10180  1  0.43029419  0.55754423  0.69620357  1.0
  P  P10181  1  0.43029419  0.68254423  0.69620357  1.0
  P  P10182  1  0.43029419  0.80754423  0.69620357  1.0
  P  P10183  1  0.43029419  0.93254423  0.69620357  1.0
  P  P10184  1  0.54140530  0.05754423  0.69620357  1.0
  P  P10185  1  0.54140530  0.18254423  0.69620357  1.0
  P  P10186  1  0.54140530  0.30754423  0.69620357  1.0
  P  P10187  1  0.54140530  0.43254423  0.69620357  1.0
  P  P10188  1  0.54140530  0.55754423  0.69620357  1.0
  P  P10189  1  0.54140530  0.68254423  0.69620357  1.0
  P  P10190  1  0.54140530  0.80754423  0.69620357  1.0
  P  P10191  1  0.54140530  0.93254423  0.69620357  1.0
  P  P10192  1  0.65251641  0.05754423  0.69620357  1.0
  P  P10193  1  0.65251641  0.18254423  0.69620357  1.0
  P  P10194  1  0.65251641  0.30754423  0.69620357  1.0
  P  P10195  1  0.65251641  0.43254423  0.69620357  1.0
  P  P10196  1  0.65251641  0.55754423  0.69620357  1.0
  P  P10197  1  0.65251641  0.68254423  0.69620357  1.0
  P  P10198  1  0.65251641  0.80754423  0.69620357  1.0
  P  P10199  1  0.65251641  0.93254423  0.69620357  1.0
  P  P10200  1  0.76362752  0.05754423  0.69620357  1.0
  P  P10201  1  0.76362752  0.18254423  0.69620357  1.0
  P  P10202  1  0.76362752  0.30754423  0.69620357  1.0
  P  P10203  1  0.76362752  0.43254423  0.69620357  1.0
  P  P10204  1  0.76362752  0.55754423  0.69620357  1.0
  P  P10205  1  0.76362752  0.68254423  0.69620357  1.0
  P  P10206  1  0.76362752  0.80754423  0.69620357  1.0
  P  P10207  1  0.76362752  0.93254423  0.69620357  1.0
  P  P10208  1  0.87473863  0.05754423  0.69620357  1.0
  P  P10209  1  0.87473863  0.18254423  0.69620357  1.0
  P  P10210  1  0.87473863  0.30754423  0.69620357  1.0
  P  P10211  1  0.87473863  0.43254423  0.69620357  1.0
  P  P10212  1  0.87473863  0.55754423  0.69620357  1.0
  P  P10213  1  0.87473863  0.68254423  0.69620357  1.0
  P  P10214  1  0.87473863  0.80754423  0.69620357  1.0
  P  P10215  1  0.87473863  0.93254423  0.69620357  1.0
  P  P10216  1  0.98584974  0.05754423  0.69620357  1.0
  P  P10217  1  0.98584974  0.18254423  0.69620357  1.0
  P  P10218  1  0.98584974  0.30754423  0.69620357  1.0
  P  P10219  1  0.98584974  0.43254423  0.69620357  1.0
  P  P10220  1  0.98584974  0.55754423  0.69620357  1.0
  P  P10221  1  0.98584974  0.68254423  0.69620357  1.0
  P  P10222  1  0.98584974  0.80754423  0.69620357  1.0
  P  P10223  1  0.98584974  0.93254423  0.69620357  1.0
  P  P10224  1  0.07050583  0.05754423  0.64858452  1.0
  P  P10225  1  0.07050583  0.18254423  0.64858452  1.0
  P  P10226  1  0.07050583  0.30754423  0.64858452  1.0
  P  P10227  1  0.07050583  0.43254423  0.64858452  1.0
  P  P10228  1  0.07050583  0.55754423  0.64858452  1.0
  P  P10229  1  0.07050583  0.68254423  0.64858452  1.0
  P  P10230  1  0.07050583  0.80754423  0.64858452  1.0
  P  P10231  1  0.07050583  0.93254423  0.64858452  1.0
  P  P10232  1  0.18161694  0.05754423  0.64858452  1.0
  P  P10233  1  0.18161694  0.18254423  0.64858452  1.0
  P  P10234  1  0.18161694  0.30754423  0.64858452  1.0
  P  P10235  1  0.18161694  0.43254423  0.64858452  1.0
  P  P10236  1  0.18161694  0.55754423  0.64858452  1.0
  P  P10237  1  0.18161694  0.68254423  0.64858452  1.0
  P  P10238  1  0.18161694  0.80754423  0.64858452  1.0
  P  P10239  1  0.18161694  0.93254423  0.64858452  1.0
  P  P10240  1  0.29272805  0.05754423  0.64858452  1.0
  P  P10241  1  0.29272805  0.18254423  0.64858452  1.0
  P  P10242  1  0.29272805  0.30754423  0.64858452  1.0
  P  P10243  1  0.29272805  0.43254423  0.64858452  1.0
  P  P10244  1  0.29272805  0.55754423  0.64858452  1.0
  P  P10245  1  0.29272805  0.68254423  0.64858452  1.0
  P  P10246  1  0.29272805  0.80754423  0.64858452  1.0
  P  P10247  1  0.29272805  0.93254423  0.64858452  1.0
  P  P10248  1  0.40383916  0.05754423  0.64858452  1.0
  P  P10249  1  0.40383916  0.18254423  0.64858452  1.0
  P  P10250  1  0.40383916  0.30754423  0.64858452  1.0
  P  P10251  1  0.40383916  0.43254423  0.64858452  1.0
  P  P10252  1  0.40383916  0.55754423  0.64858452  1.0
  P  P10253  1  0.40383916  0.68254423  0.64858452  1.0
  P  P10254  1  0.40383916  0.80754423  0.64858452  1.0
  P  P10255  1  0.40383916  0.93254423  0.64858452  1.0
  P  P10256  1  0.51495027  0.05754423  0.64858452  1.0
  P  P10257  1  0.51495027  0.18254423  0.64858452  1.0
  P  P10258  1  0.51495027  0.30754423  0.64858452  1.0
  P  P10259  1  0.51495027  0.43254423  0.64858452  1.0
  P  P10260  1  0.51495027  0.55754423  0.64858452  1.0
  P  P10261  1  0.51495027  0.68254423  0.64858452  1.0
  P  P10262  1  0.51495027  0.80754423  0.64858452  1.0
  P  P10263  1  0.51495027  0.93254423  0.64858452  1.0
  P  P10264  1  0.62606138  0.05754423  0.64858452  1.0
  P  P10265  1  0.62606138  0.18254423  0.64858452  1.0
  P  P10266  1  0.62606138  0.30754423  0.64858452  1.0
  P  P10267  1  0.62606138  0.43254423  0.64858452  1.0
  P  P10268  1  0.62606138  0.55754423  0.64858452  1.0
  P  P10269  1  0.62606138  0.68254423  0.64858452  1.0
  P  P10270  1  0.62606138  0.80754423  0.64858452  1.0
  P  P10271  1  0.62606138  0.93254423  0.64858452  1.0
  P  P10272  1  0.73717250  0.05754423  0.64858452  1.0
  P  P10273  1  0.73717250  0.18254423  0.64858452  1.0
  P  P10274  1  0.73717250  0.30754423  0.64858452  1.0
  P  P10275  1  0.73717250  0.43254423  0.64858452  1.0
  P  P10276  1  0.73717250  0.55754423  0.64858452  1.0
  P  P10277  1  0.73717250  0.68254423  0.64858452  1.0
  P  P10278  1  0.73717250  0.80754423  0.64858452  1.0
  P  P10279  1  0.73717250  0.93254423  0.64858452  1.0
  P  P10280  1  0.84828361  0.05754423  0.64858452  1.0
  P  P10281  1  0.84828361  0.18254423  0.64858452  1.0
  P  P10282  1  0.84828361  0.30754423  0.64858452  1.0
  P  P10283  1  0.84828361  0.43254423  0.64858452  1.0
  P  P10284  1  0.84828361  0.55754423  0.64858452  1.0
  P  P10285  1  0.84828361  0.68254423  0.64858452  1.0
  P  P10286  1  0.84828361  0.80754423  0.64858452  1.0
  P  P10287  1  0.84828361  0.93254423  0.64858452  1.0
  P  P10288  1  0.95939472  0.05754423  0.64858452  1.0
  P  P10289  1  0.95939472  0.18254423  0.64858452  1.0
  P  P10290  1  0.95939472  0.30754423  0.64858452  1.0
  P  P10291  1  0.95939472  0.43254423  0.64858452  1.0
  P  P10292  1  0.95939472  0.55754423  0.64858452  1.0
  P  P10293  1  0.95939472  0.68254423  0.64858452  1.0
  P  P10294  1  0.95939472  0.80754423  0.64858452  1.0
  P  P10295  1  0.95939472  0.93254423  0.64858452  1.0
  P  P10296  1  0.01230477  0.05754423  0.74382261  1.0
  P  P10297  1  0.01230477  0.18254423  0.74382261  1.0
  P  P10298  1  0.01230477  0.30754423  0.74382261  1.0
  P  P10299  1  0.01230477  0.43254423  0.74382261  1.0
  P  P10300  1  0.01230477  0.55754423  0.74382261  1.0
  P  P10301  1  0.01230477  0.68254423  0.74382261  1.0
  P  P10302  1  0.01230477  0.80754423  0.74382261  1.0
  P  P10303  1  0.01230477  0.93254423  0.74382261  1.0
  P  P10304  1  0.12341588  0.05754423  0.74382261  1.0
  P  P10305  1  0.12341588  0.18254423  0.74382261  1.0
  P  P10306  1  0.12341588  0.30754423  0.74382261  1.0
  P  P10307  1  0.12341588  0.43254423  0.74382261  1.0
  P  P10308  1  0.12341588  0.55754423  0.74382261  1.0
  P  P10309  1  0.12341588  0.68254423  0.74382261  1.0
  P  P10310  1  0.12341588  0.80754423  0.74382261  1.0
  P  P10311  1  0.12341588  0.93254423  0.74382261  1.0
  P  P10312  1  0.23452699  0.05754423  0.74382261  1.0
  P  P10313  1  0.23452699  0.18254423  0.74382261  1.0
  P  P10314  1  0.23452699  0.30754423  0.74382261  1.0
  P  P10315  1  0.23452699  0.43254423  0.74382261  1.0
  P  P10316  1  0.23452699  0.55754423  0.74382261  1.0
  P  P10317  1  0.23452699  0.68254423  0.74382261  1.0
  P  P10318  1  0.23452699  0.80754423  0.74382261  1.0
  P  P10319  1  0.23452699  0.93254423  0.74382261  1.0
  P  P10320  1  0.34563810  0.05754423  0.74382261  1.0
  P  P10321  1  0.34563810  0.18254423  0.74382261  1.0
  P  P10322  1  0.34563810  0.30754423  0.74382261  1.0
  P  P10323  1  0.34563810  0.43254423  0.74382261  1.0
  P  P10324  1  0.34563810  0.55754423  0.74382261  1.0
  P  P10325  1  0.34563810  0.68254423  0.74382261  1.0
  P  P10326  1  0.34563810  0.80754423  0.74382261  1.0
  P  P10327  1  0.34563810  0.93254423  0.74382261  1.0
  P  P10328  1  0.45674922  0.05754423  0.74382261  1.0
  P  P10329  1  0.45674922  0.18254423  0.74382261  1.0
  P  P10330  1  0.45674922  0.30754423  0.74382261  1.0
  P  P10331  1  0.45674922  0.43254423  0.74382261  1.0
  P  P10332  1  0.45674922  0.55754423  0.74382261  1.0
  P  P10333  1  0.45674922  0.68254423  0.74382261  1.0
  P  P10334  1  0.45674922  0.80754423  0.74382261  1.0
  P  P10335  1  0.45674922  0.93254423  0.74382261  1.0
  P  P10336  1  0.56786033  0.05754423  0.74382261  1.0
  P  P10337  1  0.56786033  0.18254423  0.74382261  1.0
  P  P10338  1  0.56786033  0.30754423  0.74382261  1.0
  P  P10339  1  0.56786033  0.43254423  0.74382261  1.0
  P  P10340  1  0.56786033  0.55754423  0.74382261  1.0
  P  P10341  1  0.56786033  0.68254423  0.74382261  1.0
  P  P10342  1  0.56786033  0.80754423  0.74382261  1.0
  P  P10343  1  0.56786033  0.93254423  0.74382261  1.0
  P  P10344  1  0.67897144  0.05754423  0.74382261  1.0
  P  P10345  1  0.67897144  0.18254423  0.74382261  1.0
  P  P10346  1  0.67897144  0.30754423  0.74382261  1.0
  P  P10347  1  0.67897144  0.43254423  0.74382261  1.0
  P  P10348  1  0.67897144  0.55754423  0.74382261  1.0
  P  P10349  1  0.67897144  0.68254423  0.74382261  1.0
  P  P10350  1  0.67897144  0.80754423  0.74382261  1.0
  P  P10351  1  0.67897144  0.93254423  0.74382261  1.0
  P  P10352  1  0.79008255  0.05754423  0.74382261  1.0
  P  P10353  1  0.79008255  0.18254423  0.74382261  1.0
  P  P10354  1  0.79008255  0.30754423  0.74382261  1.0
  P  P10355  1  0.79008255  0.43254423  0.74382261  1.0
  P  P10356  1  0.79008255  0.55754423  0.74382261  1.0
  P  P10357  1  0.79008255  0.68254423  0.74382261  1.0
  P  P10358  1  0.79008255  0.80754423  0.74382261  1.0
  P  P10359  1  0.79008255  0.93254423  0.74382261  1.0
  P  P10360  1  0.90119366  0.05754423  0.74382261  1.0
  P  P10361  1  0.90119366  0.18254423  0.74382261  1.0
  P  P10362  1  0.90119366  0.30754423  0.74382261  1.0
  P  P10363  1  0.90119366  0.43254423  0.74382261  1.0
  P  P10364  1  0.90119366  0.55754423  0.74382261  1.0
  P  P10365  1  0.90119366  0.68254423  0.74382261  1.0
  P  P10366  1  0.90119366  0.80754423  0.74382261  1.0
  P  P10367  1  0.90119366  0.93254423  0.74382261  1.0
