# generated using pymatgen
data_TiP2
_symmetry_space_group_name_H-M   'P 1'
_cell_length_a   63.18331892
_cell_length_b   62.42379473
_cell_length_c   58.35540207
_cell_angle_alpha   86.52173603
_cell_angle_beta   87.77483463
_cell_angle_gamma   79.68223458
_symmetry_Int_Tables_number   1
_chemical_formula_structural   TiP2
_chemical_formula_sum   'Ti3024 P6048'
_cell_volume   225931.43737582
_cell_formula_units_Z   3024
loop_
 _symmetry_equiv_pos_site_id
 _symmetry_equiv_pos_as_xyz
  1  'x, y, z'
loop_
 _atom_site_type_symbol
 _atom_site_label
 _atom_site_symmetry_multiplicity
 _atom_site_fract_x
 _atom_site_fract_y
 _atom_site_fract_z
 _atom_site_occupancy
  Ti  Ti0  1  0.05440452  0.11358494  0.27863669  1.0
  Ti  Ti1  1  0.05440452  0.25644208  0.27863669  1.0
  Ti  Ti2  1  0.05440452  0.39929923  0.27863669  1.0
  Ti  Ti3  1  0.05440452  0.54215637  0.27863669  1.0
  Ti  Ti4  1  0.05440452  0.68501351  0.27863669  1.0
  Ti  Ti5  1  0.05440452  0.82787065  0.27863669  1.0
  Ti  Ti6  1  0.05440452  0.97072780  0.27863669  1.0
  Ti  Ti7  1  0.16551564  0.11358494  0.27863669  1.0
  Ti  Ti8  1  0.16551564  0.25644208  0.27863669  1.0
  Ti  Ti9  1  0.16551564  0.39929923  0.27863669  1.0
  Ti  Ti10  1  0.16551564  0.54215637  0.27863669  1.0
  Ti  Ti11  1  0.16551564  0.68501351  0.27863669  1.0
  Ti  Ti12  1  0.16551564  0.82787065  0.27863669  1.0
  Ti  Ti13  1  0.16551564  0.97072780  0.27863669  1.0
  Ti  Ti14  1  0.27662675  0.11358494  0.27863669  1.0
  Ti  Ti15  1  0.27662675  0.25644208  0.27863669  1.0
  Ti  Ti16  1  0.27662675  0.39929923  0.27863669  1.0
  Ti  Ti17  1  0.27662675  0.54215637  0.27863669  1.0
  Ti  Ti18  1  0.27662675  0.68501351  0.27863669  1.0
  Ti  Ti19  1  0.27662675  0.82787065  0.27863669  1.0
  Ti  Ti20  1  0.27662675  0.97072780  0.27863669  1.0
  Ti  Ti21  1  0.38773786  0.11358494  0.27863669  1.0
  Ti  Ti22  1  0.38773786  0.25644208  0.27863669  1.0
  Ti  Ti23  1  0.38773786  0.39929923  0.27863669  1.0
  Ti  Ti24  1  0.38773786  0.54215637  0.27863669  1.0
  Ti  Ti25  1  0.38773786  0.68501351  0.27863669  1.0
  Ti  Ti26  1  0.38773786  0.82787065  0.27863669  1.0
  Ti  Ti27  1  0.38773786  0.97072780  0.27863669  1.0
  Ti  Ti28  1  0.49884897  0.11358494  0.27863669  1.0
  Ti  Ti29  1  0.49884897  0.25644208  0.27863669  1.0
  Ti  Ti30  1  0.49884897  0.39929923  0.27863669  1.0
  Ti  Ti31  1  0.49884897  0.54215637  0.27863669  1.0
  Ti  Ti32  1  0.49884897  0.68501351  0.27863669  1.0
  Ti  Ti33  1  0.49884897  0.82787065  0.27863669  1.0
  Ti  Ti34  1  0.49884897  0.97072780  0.27863669  1.0
  Ti  Ti35  1  0.60996008  0.11358494  0.27863669  1.0
  Ti  Ti36  1  0.60996008  0.25644208  0.27863669  1.0
  Ti  Ti37  1  0.60996008  0.39929923  0.27863669  1.0
  Ti  Ti38  1  0.60996008  0.54215637  0.27863669  1.0
  Ti  Ti39  1  0.60996008  0.68501351  0.27863669  1.0
  Ti  Ti40  1  0.60996008  0.82787065  0.27863669  1.0
  Ti  Ti41  1  0.60996008  0.97072780  0.27863669  1.0
  Ti  Ti42  1  0.72107119  0.11358494  0.27863669  1.0
  Ti  Ti43  1  0.72107119  0.25644208  0.27863669  1.0
  Ti  Ti44  1  0.72107119  0.39929923  0.27863669  1.0
  Ti  Ti45  1  0.72107119  0.54215637  0.27863669  1.0
  Ti  Ti46  1  0.72107119  0.68501351  0.27863669  1.0
  Ti  Ti47  1  0.72107119  0.82787065  0.27863669  1.0
  Ti  Ti48  1  0.72107119  0.97072780  0.27863669  1.0
  Ti  Ti49  1  0.83218230  0.11358494  0.27863669  1.0
  Ti  Ti50  1  0.83218230  0.25644208  0.27863669  1.0
  Ti  Ti51  1  0.83218230  0.39929923  0.27863669  1.0
  Ti  Ti52  1  0.83218230  0.54215637  0.27863669  1.0
  Ti  Ti53  1  0.83218230  0.68501351  0.27863669  1.0
  Ti  Ti54  1  0.83218230  0.82787065  0.27863669  1.0
  Ti  Ti55  1  0.83218230  0.97072780  0.27863669  1.0
  Ti  Ti56  1  0.94329341  0.11358494  0.27863669  1.0
  Ti  Ti57  1  0.94329341  0.25644208  0.27863669  1.0
  Ti  Ti58  1  0.94329341  0.39929923  0.27863669  1.0
  Ti  Ti59  1  0.94329341  0.54215637  0.27863669  1.0
  Ti  Ti60  1  0.94329341  0.68501351  0.27863669  1.0
  Ti  Ti61  1  0.94329341  0.82787065  0.27863669  1.0
  Ti  Ti62  1  0.94329341  0.97072780  0.27863669  1.0
  Ti  Ti63  1  0.07556855  0.12719038  0.32625574  1.0
  Ti  Ti64  1  0.07556855  0.27004753  0.32625574  1.0
  Ti  Ti65  1  0.07556855  0.41290467  0.32625574  1.0
  Ti  Ti66  1  0.07556855  0.55576181  0.32625574  1.0
  Ti  Ti67  1  0.07556855  0.69861895  0.32625574  1.0
  Ti  Ti68  1  0.07556855  0.84147610  0.32625574  1.0
  Ti  Ti69  1  0.07556855  0.98433324  0.32625574  1.0
  Ti  Ti70  1  0.18667966  0.12719038  0.32625574  1.0
  Ti  Ti71  1  0.18667966  0.27004753  0.32625574  1.0
  Ti  Ti72  1  0.18667966  0.41290467  0.32625574  1.0
  Ti  Ti73  1  0.18667966  0.55576181  0.32625574  1.0
  Ti  Ti74  1  0.18667966  0.69861895  0.32625574  1.0
  Ti  Ti75  1  0.18667966  0.84147610  0.32625574  1.0
  Ti  Ti76  1  0.18667966  0.98433324  0.32625574  1.0
  Ti  Ti77  1  0.29779077  0.12719038  0.32625574  1.0
  Ti  Ti78  1  0.29779077  0.27004753  0.32625574  1.0
  Ti  Ti79  1  0.29779077  0.41290467  0.32625574  1.0
  Ti  Ti80  1  0.29779077  0.55576181  0.32625574  1.0
  Ti  Ti81  1  0.29779077  0.69861895  0.32625574  1.0
  Ti  Ti82  1  0.29779077  0.84147610  0.32625574  1.0
  Ti  Ti83  1  0.29779077  0.98433324  0.32625574  1.0
  Ti  Ti84  1  0.40890188  0.12719038  0.32625574  1.0
  Ti  Ti85  1  0.40890188  0.27004753  0.32625574  1.0
  Ti  Ti86  1  0.40890188  0.41290467  0.32625574  1.0
  Ti  Ti87  1  0.40890188  0.55576181  0.32625574  1.0
  Ti  Ti88  1  0.40890188  0.69861895  0.32625574  1.0
  Ti  Ti89  1  0.40890188  0.84147610  0.32625574  1.0
  Ti  Ti90  1  0.40890188  0.98433324  0.32625574  1.0
  Ti  Ti91  1  0.52001299  0.12719038  0.32625574  1.0
  Ti  Ti92  1  0.52001299  0.27004753  0.32625574  1.0
  Ti  Ti93  1  0.52001299  0.41290467  0.32625574  1.0
  Ti  Ti94  1  0.52001299  0.55576181  0.32625574  1.0
  Ti  Ti95  1  0.52001299  0.69861895  0.32625574  1.0
  Ti  Ti96  1  0.52001299  0.84147610  0.32625574  1.0
  Ti  Ti97  1  0.52001299  0.98433324  0.32625574  1.0
  Ti  Ti98  1  0.63112410  0.12719038  0.32625574  1.0
  Ti  Ti99  1  0.63112410  0.27004753  0.32625574  1.0
  Ti  Ti100  1  0.63112410  0.41290467  0.32625574  1.0
  Ti  Ti101  1  0.63112410  0.55576181  0.32625574  1.0
  Ti  Ti102  1  0.63112410  0.69861895  0.32625574  1.0
  Ti  Ti103  1  0.63112410  0.84147610  0.32625574  1.0
  Ti  Ti104  1  0.63112410  0.98433324  0.32625574  1.0
  Ti  Ti105  1  0.74223521  0.12719038  0.32625574  1.0
  Ti  Ti106  1  0.74223521  0.27004753  0.32625574  1.0
  Ti  Ti107  1  0.74223521  0.41290467  0.32625574  1.0
  Ti  Ti108  1  0.74223521  0.55576181  0.32625574  1.0
  Ti  Ti109  1  0.74223521  0.69861895  0.32625574  1.0
  Ti  Ti110  1  0.74223521  0.84147610  0.32625574  1.0
  Ti  Ti111  1  0.74223521  0.98433324  0.32625574  1.0
  Ti  Ti112  1  0.85334632  0.12719038  0.32625574  1.0
  Ti  Ti113  1  0.85334632  0.27004753  0.32625574  1.0
  Ti  Ti114  1  0.85334632  0.41290467  0.32625574  1.0
  Ti  Ti115  1  0.85334632  0.55576181  0.32625574  1.0
  Ti  Ti116  1  0.85334632  0.69861895  0.32625574  1.0
  Ti  Ti117  1  0.85334632  0.84147610  0.32625574  1.0
  Ti  Ti118  1  0.85334632  0.98433324  0.32625574  1.0
  Ti  Ti119  1  0.96445743  0.12719038  0.32625574  1.0
  Ti  Ti120  1  0.96445743  0.27004753  0.32625574  1.0
  Ti  Ti121  1  0.96445743  0.41290467  0.32625574  1.0
  Ti  Ti122  1  0.96445743  0.55576181  0.32625574  1.0
  Ti  Ti123  1  0.96445743  0.69861895  0.32625574  1.0
  Ti  Ti124  1  0.96445743  0.84147610  0.32625574  1.0
  Ti  Ti125  1  0.96445743  0.98433324  0.32625574  1.0
  Ti  Ti126  1  0.03324050  0.09997950  0.23101765  1.0
  Ti  Ti127  1  0.03324050  0.24283664  0.23101765  1.0
  Ti  Ti128  1  0.03324050  0.38569378  0.23101765  1.0
  Ti  Ti129  1  0.03324050  0.52855093  0.23101765  1.0
  Ti  Ti130  1  0.03324050  0.67140807  0.23101765  1.0
  Ti  Ti131  1  0.03324050  0.81426521  0.23101765  1.0
  Ti  Ti132  1  0.03324050  0.95712235  0.23101765  1.0
  Ti  Ti133  1  0.14435161  0.09997950  0.23101765  1.0
  Ti  Ti134  1  0.14435161  0.24283664  0.23101765  1.0
  Ti  Ti135  1  0.14435161  0.38569378  0.23101765  1.0
  Ti  Ti136  1  0.14435161  0.52855093  0.23101765  1.0
  Ti  Ti137  1  0.14435161  0.67140807  0.23101765  1.0
  Ti  Ti138  1  0.14435161  0.81426521  0.23101765  1.0
  Ti  Ti139  1  0.14435161  0.95712235  0.23101765  1.0
  Ti  Ti140  1  0.25546273  0.09997950  0.23101765  1.0
  Ti  Ti141  1  0.25546273  0.24283664  0.23101765  1.0
  Ti  Ti142  1  0.25546273  0.38569378  0.23101765  1.0
  Ti  Ti143  1  0.25546273  0.52855093  0.23101765  1.0
  Ti  Ti144  1  0.25546273  0.67140807  0.23101765  1.0
  Ti  Ti145  1  0.25546273  0.81426521  0.23101765  1.0
  Ti  Ti146  1  0.25546273  0.95712235  0.23101765  1.0
  Ti  Ti147  1  0.36657384  0.09997950  0.23101765  1.0
  Ti  Ti148  1  0.36657384  0.24283664  0.23101765  1.0
  Ti  Ti149  1  0.36657384  0.38569378  0.23101765  1.0
  Ti  Ti150  1  0.36657384  0.52855093  0.23101765  1.0
  Ti  Ti151  1  0.36657384  0.67140807  0.23101765  1.0
  Ti  Ti152  1  0.36657384  0.81426521  0.23101765  1.0
  Ti  Ti153  1  0.36657384  0.95712235  0.23101765  1.0
  Ti  Ti154  1  0.47768495  0.09997950  0.23101765  1.0
  Ti  Ti155  1  0.47768495  0.24283664  0.23101765  1.0
  Ti  Ti156  1  0.47768495  0.38569378  0.23101765  1.0
  Ti  Ti157  1  0.47768495  0.52855093  0.23101765  1.0
  Ti  Ti158  1  0.47768495  0.67140807  0.23101765  1.0
  Ti  Ti159  1  0.47768495  0.81426521  0.23101765  1.0
  Ti  Ti160  1  0.47768495  0.95712235  0.23101765  1.0
  Ti  Ti161  1  0.58879606  0.09997950  0.23101765  1.0
  Ti  Ti162  1  0.58879606  0.24283664  0.23101765  1.0
  Ti  Ti163  1  0.58879606  0.38569378  0.23101765  1.0
  Ti  Ti164  1  0.58879606  0.52855093  0.23101765  1.0
  Ti  Ti165  1  0.58879606  0.67140807  0.23101765  1.0
  Ti  Ti166  1  0.58879606  0.81426521  0.23101765  1.0
  Ti  Ti167  1  0.58879606  0.95712235  0.23101765  1.0
  Ti  Ti168  1  0.69990717  0.09997950  0.23101765  1.0
  Ti  Ti169  1  0.69990717  0.24283664  0.23101765  1.0
  Ti  Ti170  1  0.69990717  0.38569378  0.23101765  1.0
  Ti  Ti171  1  0.69990717  0.52855093  0.23101765  1.0
  Ti  Ti172  1  0.69990717  0.67140807  0.23101765  1.0
  Ti  Ti173  1  0.69990717  0.81426521  0.23101765  1.0
  Ti  Ti174  1  0.69990717  0.95712235  0.23101765  1.0
  Ti  Ti175  1  0.81101828  0.09997950  0.23101765  1.0
  Ti  Ti176  1  0.81101828  0.24283664  0.23101765  1.0
  Ti  Ti177  1  0.81101828  0.38569378  0.23101765  1.0
  Ti  Ti178  1  0.81101828  0.52855093  0.23101765  1.0
  Ti  Ti179  1  0.81101828  0.67140807  0.23101765  1.0
  Ti  Ti180  1  0.81101828  0.81426521  0.23101765  1.0
  Ti  Ti181  1  0.81101828  0.95712235  0.23101765  1.0
  Ti  Ti182  1  0.92212939  0.09997950  0.23101765  1.0
  Ti  Ti183  1  0.92212939  0.24283664  0.23101765  1.0
  Ti  Ti184  1  0.92212939  0.38569378  0.23101765  1.0
  Ti  Ti185  1  0.92212939  0.52855093  0.23101765  1.0
  Ti  Ti186  1  0.92212939  0.67140807  0.23101765  1.0
  Ti  Ti187  1  0.92212939  0.81426521  0.23101765  1.0
  Ti  Ti188  1  0.92212939  0.95712235  0.23101765  1.0
  Ti  Ti189  1  0.00908754  0.07008853  0.29279188  1.0
  Ti  Ti190  1  0.00908754  0.21294567  0.29279188  1.0
  Ti  Ti191  1  0.00908754  0.35580282  0.29279188  1.0
  Ti  Ti192  1  0.00908754  0.49865996  0.29279188  1.0
  Ti  Ti193  1  0.00908754  0.64151710  0.29279188  1.0
  Ti  Ti194  1  0.00908754  0.78437424  0.29279188  1.0
  Ti  Ti195  1  0.00908754  0.92723139  0.29279188  1.0
  Ti  Ti196  1  0.12019865  0.07008853  0.29279188  1.0
  Ti  Ti197  1  0.12019865  0.21294567  0.29279188  1.0
  Ti  Ti198  1  0.12019865  0.35580282  0.29279188  1.0
  Ti  Ti199  1  0.12019865  0.49865996  0.29279188  1.0
  Ti  Ti200  1  0.12019865  0.64151710  0.29279188  1.0
  Ti  Ti201  1  0.12019865  0.78437424  0.29279188  1.0
  Ti  Ti202  1  0.12019865  0.92723139  0.29279188  1.0
  Ti  Ti203  1  0.23130976  0.07008853  0.29279188  1.0
  Ti  Ti204  1  0.23130976  0.21294567  0.29279188  1.0
  Ti  Ti205  1  0.23130976  0.35580282  0.29279188  1.0
  Ti  Ti206  1  0.23130976  0.49865996  0.29279188  1.0
  Ti  Ti207  1  0.23130976  0.64151710  0.29279188  1.0
  Ti  Ti208  1  0.23130976  0.78437424  0.29279188  1.0
  Ti  Ti209  1  0.23130976  0.92723139  0.29279188  1.0
  Ti  Ti210  1  0.34242087  0.07008853  0.29279188  1.0
  Ti  Ti211  1  0.34242087  0.21294567  0.29279188  1.0
  Ti  Ti212  1  0.34242087  0.35580282  0.29279188  1.0
  Ti  Ti213  1  0.34242087  0.49865996  0.29279188  1.0
  Ti  Ti214  1  0.34242087  0.64151710  0.29279188  1.0
  Ti  Ti215  1  0.34242087  0.78437424  0.29279188  1.0
  Ti  Ti216  1  0.34242087  0.92723139  0.29279188  1.0
  Ti  Ti217  1  0.45353198  0.07008853  0.29279188  1.0
  Ti  Ti218  1  0.45353198  0.21294567  0.29279188  1.0
  Ti  Ti219  1  0.45353198  0.35580282  0.29279188  1.0
  Ti  Ti220  1  0.45353198  0.49865996  0.29279188  1.0
  Ti  Ti221  1  0.45353198  0.64151710  0.29279188  1.0
  Ti  Ti222  1  0.45353198  0.78437424  0.29279188  1.0
  Ti  Ti223  1  0.45353198  0.92723139  0.29279188  1.0
  Ti  Ti224  1  0.56464309  0.07008853  0.29279188  1.0
  Ti  Ti225  1  0.56464309  0.21294567  0.29279188  1.0
  Ti  Ti226  1  0.56464309  0.35580282  0.29279188  1.0
  Ti  Ti227  1  0.56464309  0.49865996  0.29279188  1.0
  Ti  Ti228  1  0.56464309  0.64151710  0.29279188  1.0
  Ti  Ti229  1  0.56464309  0.78437424  0.29279188  1.0
  Ti  Ti230  1  0.56464309  0.92723139  0.29279188  1.0
  Ti  Ti231  1  0.67575421  0.07008853  0.29279188  1.0
  Ti  Ti232  1  0.67575421  0.21294567  0.29279188  1.0
  Ti  Ti233  1  0.67575421  0.35580282  0.29279188  1.0
  Ti  Ti234  1  0.67575421  0.49865996  0.29279188  1.0
  Ti  Ti235  1  0.67575421  0.64151710  0.29279188  1.0
  Ti  Ti236  1  0.67575421  0.78437424  0.29279188  1.0
  Ti  Ti237  1  0.67575421  0.92723139  0.29279188  1.0
  Ti  Ti238  1  0.78686532  0.07008853  0.29279188  1.0
  Ti  Ti239  1  0.78686532  0.21294567  0.29279188  1.0
  Ti  Ti240  1  0.78686532  0.35580282  0.29279188  1.0
  Ti  Ti241  1  0.78686532  0.49865996  0.29279188  1.0
  Ti  Ti242  1  0.78686532  0.64151710  0.29279188  1.0
  Ti  Ti243  1  0.78686532  0.78437424  0.29279188  1.0
  Ti  Ti244  1  0.78686532  0.92723139  0.29279188  1.0
  Ti  Ti245  1  0.89797643  0.07008853  0.29279188  1.0
  Ti  Ti246  1  0.89797643  0.21294567  0.29279188  1.0
  Ti  Ti247  1  0.89797643  0.35580282  0.29279188  1.0
  Ti  Ti248  1  0.89797643  0.49865996  0.29279188  1.0
  Ti  Ti249  1  0.89797643  0.64151710  0.29279188  1.0
  Ti  Ti250  1  0.89797643  0.78437424  0.29279188  1.0
  Ti  Ti251  1  0.89797643  0.92723139  0.29279188  1.0
  Ti  Ti252  1  0.03025156  0.08369397  0.34041092  1.0
  Ti  Ti253  1  0.03025156  0.22655111  0.34041092  1.0
  Ti  Ti254  1  0.03025156  0.36940826  0.34041092  1.0
  Ti  Ti255  1  0.03025156  0.51226540  0.34041092  1.0
  Ti  Ti256  1  0.03025156  0.65512254  0.34041092  1.0
  Ti  Ti257  1  0.03025156  0.79797969  0.34041092  1.0
  Ti  Ti258  1  0.03025156  0.94083683  0.34041092  1.0
  Ti  Ti259  1  0.14136267  0.08369397  0.34041092  1.0
  Ti  Ti260  1  0.14136267  0.22655111  0.34041092  1.0
  Ti  Ti261  1  0.14136267  0.36940826  0.34041092  1.0
  Ti  Ti262  1  0.14136267  0.51226540  0.34041092  1.0
  Ti  Ti263  1  0.14136267  0.65512254  0.34041092  1.0
  Ti  Ti264  1  0.14136267  0.79797969  0.34041092  1.0
  Ti  Ti265  1  0.14136267  0.94083683  0.34041092  1.0
  Ti  Ti266  1  0.25247378  0.08369397  0.34041092  1.0
  Ti  Ti267  1  0.25247378  0.22655111  0.34041092  1.0
  Ti  Ti268  1  0.25247378  0.36940826  0.34041092  1.0
  Ti  Ti269  1  0.25247378  0.51226540  0.34041092  1.0
  Ti  Ti270  1  0.25247378  0.65512254  0.34041092  1.0
  Ti  Ti271  1  0.25247378  0.79797969  0.34041092  1.0
  Ti  Ti272  1  0.25247378  0.94083683  0.34041092  1.0
  Ti  Ti273  1  0.36358489  0.08369397  0.34041092  1.0
  Ti  Ti274  1  0.36358489  0.22655111  0.34041092  1.0
  Ti  Ti275  1  0.36358489  0.36940826  0.34041092  1.0
  Ti  Ti276  1  0.36358489  0.51226540  0.34041092  1.0
  Ti  Ti277  1  0.36358489  0.65512254  0.34041092  1.0
  Ti  Ti278  1  0.36358489  0.79797969  0.34041092  1.0
  Ti  Ti279  1  0.36358489  0.94083683  0.34041092  1.0
  Ti  Ti280  1  0.47469600  0.08369397  0.34041092  1.0
  Ti  Ti281  1  0.47469600  0.22655111  0.34041092  1.0
  Ti  Ti282  1  0.47469600  0.36940826  0.34041092  1.0
  Ti  Ti283  1  0.47469600  0.51226540  0.34041092  1.0
  Ti  Ti284  1  0.47469600  0.65512254  0.34041092  1.0
  Ti  Ti285  1  0.47469600  0.79797969  0.34041092  1.0
  Ti  Ti286  1  0.47469600  0.94083683  0.34041092  1.0
  Ti  Ti287  1  0.58580712  0.08369397  0.34041092  1.0
  Ti  Ti288  1  0.58580712  0.22655111  0.34041092  1.0
  Ti  Ti289  1  0.58580712  0.36940826  0.34041092  1.0
  Ti  Ti290  1  0.58580712  0.51226540  0.34041092  1.0
  Ti  Ti291  1  0.58580712  0.65512254  0.34041092  1.0
  Ti  Ti292  1  0.58580712  0.79797969  0.34041092  1.0
  Ti  Ti293  1  0.58580712  0.94083683  0.34041092  1.0
  Ti  Ti294  1  0.69691823  0.08369397  0.34041092  1.0
  Ti  Ti295  1  0.69691823  0.22655111  0.34041092  1.0
  Ti  Ti296  1  0.69691823  0.36940826  0.34041092  1.0
  Ti  Ti297  1  0.69691823  0.51226540  0.34041092  1.0
  Ti  Ti298  1  0.69691823  0.65512254  0.34041092  1.0
  Ti  Ti299  1  0.69691823  0.79797969  0.34041092  1.0
  Ti  Ti300  1  0.69691823  0.94083683  0.34041092  1.0
  Ti  Ti301  1  0.80802934  0.08369397  0.34041092  1.0
  Ti  Ti302  1  0.80802934  0.22655111  0.34041092  1.0
  Ti  Ti303  1  0.80802934  0.36940826  0.34041092  1.0
  Ti  Ti304  1  0.80802934  0.51226540  0.34041092  1.0
  Ti  Ti305  1  0.80802934  0.65512254  0.34041092  1.0
  Ti  Ti306  1  0.80802934  0.79797969  0.34041092  1.0
  Ti  Ti307  1  0.80802934  0.94083683  0.34041092  1.0
  Ti  Ti308  1  0.91914045  0.08369397  0.34041092  1.0
  Ti  Ti309  1  0.91914045  0.22655111  0.34041092  1.0
  Ti  Ti310  1  0.91914045  0.36940826  0.34041092  1.0
  Ti  Ti311  1  0.91914045  0.51226540  0.34041092  1.0
  Ti  Ti312  1  0.91914045  0.65512254  0.34041092  1.0
  Ti  Ti313  1  0.91914045  0.79797969  0.34041092  1.0
  Ti  Ti314  1  0.91914045  0.94083683  0.34041092  1.0
  Ti  Ti315  1  0.09903463  0.05648309  0.24517283  1.0
  Ti  Ti316  1  0.09903463  0.19934023  0.24517283  1.0
  Ti  Ti317  1  0.09903463  0.34219737  0.24517283  1.0
  Ti  Ti318  1  0.09903463  0.48505452  0.24517283  1.0
  Ti  Ti319  1  0.09903463  0.62791166  0.24517283  1.0
  Ti  Ti320  1  0.09903463  0.77076880  0.24517283  1.0
  Ti  Ti321  1  0.09903463  0.91362594  0.24517283  1.0
  Ti  Ti322  1  0.21014574  0.05648309  0.24517283  1.0
  Ti  Ti323  1  0.21014574  0.19934023  0.24517283  1.0
  Ti  Ti324  1  0.21014574  0.34219737  0.24517283  1.0
  Ti  Ti325  1  0.21014574  0.48505452  0.24517283  1.0
  Ti  Ti326  1  0.21014574  0.62791166  0.24517283  1.0
  Ti  Ti327  1  0.21014574  0.77076880  0.24517283  1.0
  Ti  Ti328  1  0.21014574  0.91362594  0.24517283  1.0
  Ti  Ti329  1  0.32125685  0.05648309  0.24517283  1.0
  Ti  Ti330  1  0.32125685  0.19934023  0.24517283  1.0
  Ti  Ti331  1  0.32125685  0.34219737  0.24517283  1.0
  Ti  Ti332  1  0.32125685  0.48505452  0.24517283  1.0
  Ti  Ti333  1  0.32125685  0.62791166  0.24517283  1.0
  Ti  Ti334  1  0.32125685  0.77076880  0.24517283  1.0
  Ti  Ti335  1  0.32125685  0.91362594  0.24517283  1.0
  Ti  Ti336  1  0.43236796  0.05648309  0.24517283  1.0
  Ti  Ti337  1  0.43236796  0.19934023  0.24517283  1.0
  Ti  Ti338  1  0.43236796  0.34219737  0.24517283  1.0
  Ti  Ti339  1  0.43236796  0.48505452  0.24517283  1.0
  Ti  Ti340  1  0.43236796  0.62791166  0.24517283  1.0
  Ti  Ti341  1  0.43236796  0.77076880  0.24517283  1.0
  Ti  Ti342  1  0.43236796  0.91362594  0.24517283  1.0
  Ti  Ti343  1  0.54347907  0.05648309  0.24517283  1.0
  Ti  Ti344  1  0.54347907  0.19934023  0.24517283  1.0
  Ti  Ti345  1  0.54347907  0.34219737  0.24517283  1.0
  Ti  Ti346  1  0.54347907  0.48505452  0.24517283  1.0
  Ti  Ti347  1  0.54347907  0.62791166  0.24517283  1.0
  Ti  Ti348  1  0.54347907  0.77076880  0.24517283  1.0
  Ti  Ti349  1  0.54347907  0.91362594  0.24517283  1.0
  Ti  Ti350  1  0.65459018  0.05648309  0.24517283  1.0
  Ti  Ti351  1  0.65459018  0.19934023  0.24517283  1.0
  Ti  Ti352  1  0.65459018  0.34219737  0.24517283  1.0
  Ti  Ti353  1  0.65459018  0.48505452  0.24517283  1.0
  Ti  Ti354  1  0.65459018  0.62791166  0.24517283  1.0
  Ti  Ti355  1  0.65459018  0.77076880  0.24517283  1.0
  Ti  Ti356  1  0.65459018  0.91362594  0.24517283  1.0
  Ti  Ti357  1  0.76570130  0.05648309  0.24517283  1.0
  Ti  Ti358  1  0.76570130  0.19934023  0.24517283  1.0
  Ti  Ti359  1  0.76570130  0.34219737  0.24517283  1.0
  Ti  Ti360  1  0.76570130  0.48505452  0.24517283  1.0
  Ti  Ti361  1  0.76570130  0.62791166  0.24517283  1.0
  Ti  Ti362  1  0.76570130  0.77076880  0.24517283  1.0
  Ti  Ti363  1  0.76570130  0.91362594  0.24517283  1.0
  Ti  Ti364  1  0.87681241  0.05648309  0.24517283  1.0
  Ti  Ti365  1  0.87681241  0.19934023  0.24517283  1.0
  Ti  Ti366  1  0.87681241  0.34219737  0.24517283  1.0
  Ti  Ti367  1  0.87681241  0.48505452  0.24517283  1.0
  Ti  Ti368  1  0.87681241  0.62791166  0.24517283  1.0
  Ti  Ti369  1  0.87681241  0.77076880  0.24517283  1.0
  Ti  Ti370  1  0.87681241  0.91362594  0.24517283  1.0
  Ti  Ti371  1  0.98792352  0.05648309  0.24517283  1.0
  Ti  Ti372  1  0.98792352  0.19934023  0.24517283  1.0
  Ti  Ti373  1  0.98792352  0.34219737  0.24517283  1.0
  Ti  Ti374  1  0.98792352  0.48505452  0.24517283  1.0
  Ti  Ti375  1  0.98792352  0.62791166  0.24517283  1.0
  Ti  Ti376  1  0.98792352  0.77076880  0.24517283  1.0
  Ti  Ti377  1  0.98792352  0.91362594  0.24517283  1.0
  Ti  Ti378  1  0.09583913  0.12839501  0.24686456  1.0
  Ti  Ti379  1  0.09583913  0.27125215  0.24686456  1.0
  Ti  Ti380  1  0.09583913  0.41410930  0.24686456  1.0
  Ti  Ti381  1  0.09583913  0.55696644  0.24686456  1.0
  Ti  Ti382  1  0.09583913  0.69982358  0.24686456  1.0
  Ti  Ti383  1  0.09583913  0.84268073  0.24686456  1.0
  Ti  Ti384  1  0.09583913  0.98553787  0.24686456  1.0
  Ti  Ti385  1  0.20695024  0.12839501  0.24686456  1.0
  Ti  Ti386  1  0.20695024  0.27125215  0.24686456  1.0
  Ti  Ti387  1  0.20695024  0.41410930  0.24686456  1.0
  Ti  Ti388  1  0.20695024  0.55696644  0.24686456  1.0
  Ti  Ti389  1  0.20695024  0.69982358  0.24686456  1.0
  Ti  Ti390  1  0.20695024  0.84268073  0.24686456  1.0
  Ti  Ti391  1  0.20695024  0.98553787  0.24686456  1.0
  Ti  Ti392  1  0.31806135  0.12839501  0.24686456  1.0
  Ti  Ti393  1  0.31806135  0.27125215  0.24686456  1.0
  Ti  Ti394  1  0.31806135  0.41410930  0.24686456  1.0
  Ti  Ti395  1  0.31806135  0.55696644  0.24686456  1.0
  Ti  Ti396  1  0.31806135  0.69982358  0.24686456  1.0
  Ti  Ti397  1  0.31806135  0.84268073  0.24686456  1.0
  Ti  Ti398  1  0.31806135  0.98553787  0.24686456  1.0
  Ti  Ti399  1  0.42917247  0.12839501  0.24686456  1.0
  Ti  Ti400  1  0.42917247  0.27125215  0.24686456  1.0
  Ti  Ti401  1  0.42917247  0.41410930  0.24686456  1.0
  Ti  Ti402  1  0.42917247  0.55696644  0.24686456  1.0
  Ti  Ti403  1  0.42917247  0.69982358  0.24686456  1.0
  Ti  Ti404  1  0.42917247  0.84268073  0.24686456  1.0
  Ti  Ti405  1  0.42917247  0.98553787  0.24686456  1.0
  Ti  Ti406  1  0.54028358  0.12839501  0.24686456  1.0
  Ti  Ti407  1  0.54028358  0.27125215  0.24686456  1.0
  Ti  Ti408  1  0.54028358  0.41410930  0.24686456  1.0
  Ti  Ti409  1  0.54028358  0.55696644  0.24686456  1.0
  Ti  Ti410  1  0.54028358  0.69982358  0.24686456  1.0
  Ti  Ti411  1  0.54028358  0.84268073  0.24686456  1.0
  Ti  Ti412  1  0.54028358  0.98553787  0.24686456  1.0
  Ti  Ti413  1  0.65139469  0.12839501  0.24686456  1.0
  Ti  Ti414  1  0.65139469  0.27125215  0.24686456  1.0
  Ti  Ti415  1  0.65139469  0.41410930  0.24686456  1.0
  Ti  Ti416  1  0.65139469  0.55696644  0.24686456  1.0
  Ti  Ti417  1  0.65139469  0.69982358  0.24686456  1.0
  Ti  Ti418  1  0.65139469  0.84268073  0.24686456  1.0
  Ti  Ti419  1  0.65139469  0.98553787  0.24686456  1.0
  Ti  Ti420  1  0.76250580  0.12839501  0.24686456  1.0
  Ti  Ti421  1  0.76250580  0.27125215  0.24686456  1.0
  Ti  Ti422  1  0.76250580  0.41410930  0.24686456  1.0
  Ti  Ti423  1  0.76250580  0.55696644  0.24686456  1.0
  Ti  Ti424  1  0.76250580  0.69982358  0.24686456  1.0
  Ti  Ti425  1  0.76250580  0.84268073  0.24686456  1.0
  Ti  Ti426  1  0.76250580  0.98553787  0.24686456  1.0
  Ti  Ti427  1  0.87361691  0.12839501  0.24686456  1.0
  Ti  Ti428  1  0.87361691  0.27125215  0.24686456  1.0
  Ti  Ti429  1  0.87361691  0.41410930  0.24686456  1.0
  Ti  Ti430  1  0.87361691  0.55696644  0.24686456  1.0
  Ti  Ti431  1  0.87361691  0.69982358  0.24686456  1.0
  Ti  Ti432  1  0.87361691  0.84268073  0.24686456  1.0
  Ti  Ti433  1  0.87361691  0.98553787  0.24686456  1.0
  Ti  Ti434  1  0.98472802  0.12839501  0.24686456  1.0
  Ti  Ti435  1  0.98472802  0.27125215  0.24686456  1.0
  Ti  Ti436  1  0.98472802  0.41410930  0.24686456  1.0
  Ti  Ti437  1  0.98472802  0.55696644  0.24686456  1.0
  Ti  Ti438  1  0.98472802  0.69982358  0.24686456  1.0
  Ti  Ti439  1  0.98472802  0.84268073  0.24686456  1.0
  Ti  Ti440  1  0.98472802  0.98553787  0.24686456  1.0
  Ti  Ti441  1  0.00589204  0.14200045  0.29448361  1.0
  Ti  Ti442  1  0.00589204  0.28485760  0.29448361  1.0
  Ti  Ti443  1  0.00589204  0.42771474  0.29448361  1.0
  Ti  Ti444  1  0.00589204  0.57057188  0.29448361  1.0
  Ti  Ti445  1  0.00589204  0.71342902  0.29448361  1.0
  Ti  Ti446  1  0.00589204  0.85628617  0.29448361  1.0
  Ti  Ti447  1  0.00589204  0.99914331  0.29448361  1.0
  Ti  Ti448  1  0.11700315  0.14200045  0.29448361  1.0
  Ti  Ti449  1  0.11700315  0.28485760  0.29448361  1.0
  Ti  Ti450  1  0.11700315  0.42771474  0.29448361  1.0
  Ti  Ti451  1  0.11700315  0.57057188  0.29448361  1.0
  Ti  Ti452  1  0.11700315  0.71342902  0.29448361  1.0
  Ti  Ti453  1  0.11700315  0.85628617  0.29448361  1.0
  Ti  Ti454  1  0.11700315  0.99914331  0.29448361  1.0
  Ti  Ti455  1  0.22811426  0.14200045  0.29448361  1.0
  Ti  Ti456  1  0.22811426  0.28485760  0.29448361  1.0
  Ti  Ti457  1  0.22811426  0.42771474  0.29448361  1.0
  Ti  Ti458  1  0.22811426  0.57057188  0.29448361  1.0
  Ti  Ti459  1  0.22811426  0.71342902  0.29448361  1.0
  Ti  Ti460  1  0.22811426  0.85628617  0.29448361  1.0
  Ti  Ti461  1  0.22811426  0.99914331  0.29448361  1.0
  Ti  Ti462  1  0.33922538  0.14200045  0.29448361  1.0
  Ti  Ti463  1  0.33922538  0.28485760  0.29448361  1.0
  Ti  Ti464  1  0.33922538  0.42771474  0.29448361  1.0
  Ti  Ti465  1  0.33922538  0.57057188  0.29448361  1.0
  Ti  Ti466  1  0.33922538  0.71342902  0.29448361  1.0
  Ti  Ti467  1  0.33922538  0.85628617  0.29448361  1.0
  Ti  Ti468  1  0.33922538  0.99914331  0.29448361  1.0
  Ti  Ti469  1  0.45033649  0.14200045  0.29448361  1.0
  Ti  Ti470  1  0.45033649  0.28485760  0.29448361  1.0
  Ti  Ti471  1  0.45033649  0.42771474  0.29448361  1.0
  Ti  Ti472  1  0.45033649  0.57057188  0.29448361  1.0
  Ti  Ti473  1  0.45033649  0.71342902  0.29448361  1.0
  Ti  Ti474  1  0.45033649  0.85628617  0.29448361  1.0
  Ti  Ti475  1  0.45033649  0.99914331  0.29448361  1.0
  Ti  Ti476  1  0.56144760  0.14200045  0.29448361  1.0
  Ti  Ti477  1  0.56144760  0.28485760  0.29448361  1.0
  Ti  Ti478  1  0.56144760  0.42771474  0.29448361  1.0
  Ti  Ti479  1  0.56144760  0.57057188  0.29448361  1.0
  Ti  Ti480  1  0.56144760  0.71342902  0.29448361  1.0
  Ti  Ti481  1  0.56144760  0.85628617  0.29448361  1.0
  Ti  Ti482  1  0.56144760  0.99914331  0.29448361  1.0
  Ti  Ti483  1  0.67255871  0.14200045  0.29448361  1.0
  Ti  Ti484  1  0.67255871  0.28485760  0.29448361  1.0
  Ti  Ti485  1  0.67255871  0.42771474  0.29448361  1.0
  Ti  Ti486  1  0.67255871  0.57057188  0.29448361  1.0
  Ti  Ti487  1  0.67255871  0.71342902  0.29448361  1.0
  Ti  Ti488  1  0.67255871  0.85628617  0.29448361  1.0
  Ti  Ti489  1  0.67255871  0.99914331  0.29448361  1.0
  Ti  Ti490  1  0.78366982  0.14200045  0.29448361  1.0
  Ti  Ti491  1  0.78366982  0.28485760  0.29448361  1.0
  Ti  Ti492  1  0.78366982  0.42771474  0.29448361  1.0
  Ti  Ti493  1  0.78366982  0.57057188  0.29448361  1.0
  Ti  Ti494  1  0.78366982  0.71342902  0.29448361  1.0
  Ti  Ti495  1  0.78366982  0.85628617  0.29448361  1.0
  Ti  Ti496  1  0.78366982  0.99914331  0.29448361  1.0
  Ti  Ti497  1  0.89478093  0.14200045  0.29448361  1.0
  Ti  Ti498  1  0.89478093  0.28485760  0.29448361  1.0
  Ti  Ti499  1  0.89478093  0.42771474  0.29448361  1.0
  Ti  Ti500  1  0.89478093  0.57057188  0.29448361  1.0
  Ti  Ti501  1  0.89478093  0.71342902  0.29448361  1.0
  Ti  Ti502  1  0.89478093  0.85628617  0.29448361  1.0
  Ti  Ti503  1  0.89478093  0.99914331  0.29448361  1.0
  Ti  Ti504  1  0.02705606  0.01274875  0.34210266  1.0
  Ti  Ti505  1  0.02705606  0.15560590  0.34210266  1.0
  Ti  Ti506  1  0.02705606  0.29846304  0.34210266  1.0
  Ti  Ti507  1  0.02705606  0.44132018  0.34210266  1.0
  Ti  Ti508  1  0.02705606  0.58417732  0.34210266  1.0
  Ti  Ti509  1  0.02705606  0.72703447  0.34210266  1.0
  Ti  Ti510  1  0.02705606  0.86989161  0.34210266  1.0
  Ti  Ti511  1  0.13816718  0.01274875  0.34210266  1.0
  Ti  Ti512  1  0.13816718  0.15560590  0.34210266  1.0
  Ti  Ti513  1  0.13816718  0.29846304  0.34210266  1.0
  Ti  Ti514  1  0.13816718  0.44132018  0.34210266  1.0
  Ti  Ti515  1  0.13816718  0.58417732  0.34210266  1.0
  Ti  Ti516  1  0.13816718  0.72703447  0.34210266  1.0
  Ti  Ti517  1  0.13816718  0.86989161  0.34210266  1.0
  Ti  Ti518  1  0.24927829  0.01274875  0.34210266  1.0
  Ti  Ti519  1  0.24927829  0.15560590  0.34210266  1.0
  Ti  Ti520  1  0.24927829  0.29846304  0.34210266  1.0
  Ti  Ti521  1  0.24927829  0.44132018  0.34210266  1.0
  Ti  Ti522  1  0.24927829  0.58417732  0.34210266  1.0
  Ti  Ti523  1  0.24927829  0.72703447  0.34210266  1.0
  Ti  Ti524  1  0.24927829  0.86989161  0.34210266  1.0
  Ti  Ti525  1  0.36038940  0.01274875  0.34210266  1.0
  Ti  Ti526  1  0.36038940  0.15560590  0.34210266  1.0
  Ti  Ti527  1  0.36038940  0.29846304  0.34210266  1.0
  Ti  Ti528  1  0.36038940  0.44132018  0.34210266  1.0
  Ti  Ti529  1  0.36038940  0.58417732  0.34210266  1.0
  Ti  Ti530  1  0.36038940  0.72703447  0.34210266  1.0
  Ti  Ti531  1  0.36038940  0.86989161  0.34210266  1.0
  Ti  Ti532  1  0.47150051  0.01274875  0.34210266  1.0
  Ti  Ti533  1  0.47150051  0.15560590  0.34210266  1.0
  Ti  Ti534  1  0.47150051  0.29846304  0.34210266  1.0
  Ti  Ti535  1  0.47150051  0.44132018  0.34210266  1.0
  Ti  Ti536  1  0.47150051  0.58417732  0.34210266  1.0
  Ti  Ti537  1  0.47150051  0.72703447  0.34210266  1.0
  Ti  Ti538  1  0.47150051  0.86989161  0.34210266  1.0
  Ti  Ti539  1  0.58261162  0.01274875  0.34210266  1.0
  Ti  Ti540  1  0.58261162  0.15560590  0.34210266  1.0
  Ti  Ti541  1  0.58261162  0.29846304  0.34210266  1.0
  Ti  Ti542  1  0.58261162  0.44132018  0.34210266  1.0
  Ti  Ti543  1  0.58261162  0.58417732  0.34210266  1.0
  Ti  Ti544  1  0.58261162  0.72703447  0.34210266  1.0
  Ti  Ti545  1  0.58261162  0.86989161  0.34210266  1.0
  Ti  Ti546  1  0.69372273  0.01274875  0.34210266  1.0
  Ti  Ti547  1  0.69372273  0.15560590  0.34210266  1.0
  Ti  Ti548  1  0.69372273  0.29846304  0.34210266  1.0
  Ti  Ti549  1  0.69372273  0.44132018  0.34210266  1.0
  Ti  Ti550  1  0.69372273  0.58417732  0.34210266  1.0
  Ti  Ti551  1  0.69372273  0.72703447  0.34210266  1.0
  Ti  Ti552  1  0.69372273  0.86989161  0.34210266  1.0
  Ti  Ti553  1  0.80483384  0.01274875  0.34210266  1.0
  Ti  Ti554  1  0.80483384  0.15560590  0.34210266  1.0
  Ti  Ti555  1  0.80483384  0.29846304  0.34210266  1.0
  Ti  Ti556  1  0.80483384  0.44132018  0.34210266  1.0
  Ti  Ti557  1  0.80483384  0.58417732  0.34210266  1.0
  Ti  Ti558  1  0.80483384  0.72703447  0.34210266  1.0
  Ti  Ti559  1  0.80483384  0.86989161  0.34210266  1.0
  Ti  Ti560  1  0.91594495  0.01274875  0.34210266  1.0
  Ti  Ti561  1  0.91594495  0.15560590  0.34210266  1.0
  Ti  Ti562  1  0.91594495  0.29846304  0.34210266  1.0
  Ti  Ti563  1  0.91594495  0.44132018  0.34210266  1.0
  Ti  Ti564  1  0.91594495  0.58417732  0.34210266  1.0
  Ti  Ti565  1  0.91594495  0.72703447  0.34210266  1.0
  Ti  Ti566  1  0.91594495  0.86989161  0.34210266  1.0
  Ti  Ti567  1  0.07876404  0.05527846  0.32456401  1.0
  Ti  Ti568  1  0.07876404  0.19813560  0.32456401  1.0
  Ti  Ti569  1  0.07876404  0.34099274  0.32456401  1.0
  Ti  Ti570  1  0.07876404  0.48384989  0.32456401  1.0
  Ti  Ti571  1  0.07876404  0.62670703  0.32456401  1.0
  Ti  Ti572  1  0.07876404  0.76956417  0.32456401  1.0
  Ti  Ti573  1  0.07876404  0.91242132  0.32456401  1.0
  Ti  Ti574  1  0.18987515  0.05527846  0.32456401  1.0
  Ti  Ti575  1  0.18987515  0.19813560  0.32456401  1.0
  Ti  Ti576  1  0.18987515  0.34099274  0.32456401  1.0
  Ti  Ti577  1  0.18987515  0.48384989  0.32456401  1.0
  Ti  Ti578  1  0.18987515  0.62670703  0.32456401  1.0
  Ti  Ti579  1  0.18987515  0.76956417  0.32456401  1.0
  Ti  Ti580  1  0.18987515  0.91242132  0.32456401  1.0
  Ti  Ti581  1  0.30098626  0.05527846  0.32456401  1.0
  Ti  Ti582  1  0.30098626  0.19813560  0.32456401  1.0
  Ti  Ti583  1  0.30098626  0.34099274  0.32456401  1.0
  Ti  Ti584  1  0.30098626  0.48384989  0.32456401  1.0
  Ti  Ti585  1  0.30098626  0.62670703  0.32456401  1.0
  Ti  Ti586  1  0.30098626  0.76956417  0.32456401  1.0
  Ti  Ti587  1  0.30098626  0.91242132  0.32456401  1.0
  Ti  Ti588  1  0.41209738  0.05527846  0.32456401  1.0
  Ti  Ti589  1  0.41209738  0.19813560  0.32456401  1.0
  Ti  Ti590  1  0.41209738  0.34099274  0.32456401  1.0
  Ti  Ti591  1  0.41209738  0.48384989  0.32456401  1.0
  Ti  Ti592  1  0.41209738  0.62670703  0.32456401  1.0
  Ti  Ti593  1  0.41209738  0.76956417  0.32456401  1.0
  Ti  Ti594  1  0.41209738  0.91242132  0.32456401  1.0
  Ti  Ti595  1  0.52320849  0.05527846  0.32456401  1.0
  Ti  Ti596  1  0.52320849  0.19813560  0.32456401  1.0
  Ti  Ti597  1  0.52320849  0.34099274  0.32456401  1.0
  Ti  Ti598  1  0.52320849  0.48384989  0.32456401  1.0
  Ti  Ti599  1  0.52320849  0.62670703  0.32456401  1.0
  Ti  Ti600  1  0.52320849  0.76956417  0.32456401  1.0
  Ti  Ti601  1  0.52320849  0.91242132  0.32456401  1.0
  Ti  Ti602  1  0.63431960  0.05527846  0.32456401  1.0
  Ti  Ti603  1  0.63431960  0.19813560  0.32456401  1.0
  Ti  Ti604  1  0.63431960  0.34099274  0.32456401  1.0
  Ti  Ti605  1  0.63431960  0.48384989  0.32456401  1.0
  Ti  Ti606  1  0.63431960  0.62670703  0.32456401  1.0
  Ti  Ti607  1  0.63431960  0.76956417  0.32456401  1.0
  Ti  Ti608  1  0.63431960  0.91242132  0.32456401  1.0
  Ti  Ti609  1  0.74543071  0.05527846  0.32456401  1.0
  Ti  Ti610  1  0.74543071  0.19813560  0.32456401  1.0
  Ti  Ti611  1  0.74543071  0.34099274  0.32456401  1.0
  Ti  Ti612  1  0.74543071  0.48384989  0.32456401  1.0
  Ti  Ti613  1  0.74543071  0.62670703  0.32456401  1.0
  Ti  Ti614  1  0.74543071  0.76956417  0.32456401  1.0
  Ti  Ti615  1  0.74543071  0.91242132  0.32456401  1.0
  Ti  Ti616  1  0.85654182  0.05527846  0.32456401  1.0
  Ti  Ti617  1  0.85654182  0.19813560  0.32456401  1.0
  Ti  Ti618  1  0.85654182  0.34099274  0.32456401  1.0
  Ti  Ti619  1  0.85654182  0.48384989  0.32456401  1.0
  Ti  Ti620  1  0.85654182  0.62670703  0.32456401  1.0
  Ti  Ti621  1  0.85654182  0.76956417  0.32456401  1.0
  Ti  Ti622  1  0.85654182  0.91242132  0.32456401  1.0
  Ti  Ti623  1  0.96765293  0.05527846  0.32456401  1.0
  Ti  Ti624  1  0.96765293  0.19813560  0.32456401  1.0
  Ti  Ti625  1  0.96765293  0.34099274  0.32456401  1.0
  Ti  Ti626  1  0.96765293  0.48384989  0.32456401  1.0
  Ti  Ti627  1  0.96765293  0.62670703  0.32456401  1.0
  Ti  Ti628  1  0.96765293  0.76956417  0.32456401  1.0
  Ti  Ti629  1  0.96765293  0.91242132  0.32456401  1.0
  Ti  Ti630  1  0.03643600  0.02806757  0.22932591  1.0
  Ti  Ti631  1  0.03643600  0.17092472  0.22932591  1.0
  Ti  Ti632  1  0.03643600  0.31378186  0.22932591  1.0
  Ti  Ti633  1  0.03643600  0.45663900  0.22932591  1.0
  Ti  Ti634  1  0.03643600  0.59949615  0.22932591  1.0
  Ti  Ti635  1  0.03643600  0.74235329  0.22932591  1.0
  Ti  Ti636  1  0.03643600  0.88521043  0.22932591  1.0
  Ti  Ti637  1  0.14754711  0.02806757  0.22932591  1.0
  Ti  Ti638  1  0.14754711  0.17092472  0.22932591  1.0
  Ti  Ti639  1  0.14754711  0.31378186  0.22932591  1.0
  Ti  Ti640  1  0.14754711  0.45663900  0.22932591  1.0
  Ti  Ti641  1  0.14754711  0.59949615  0.22932591  1.0
  Ti  Ti642  1  0.14754711  0.74235329  0.22932591  1.0
  Ti  Ti643  1  0.14754711  0.88521043  0.22932591  1.0
  Ti  Ti644  1  0.25865822  0.02806757  0.22932591  1.0
  Ti  Ti645  1  0.25865822  0.17092472  0.22932591  1.0
  Ti  Ti646  1  0.25865822  0.31378186  0.22932591  1.0
  Ti  Ti647  1  0.25865822  0.45663900  0.22932591  1.0
  Ti  Ti648  1  0.25865822  0.59949615  0.22932591  1.0
  Ti  Ti649  1  0.25865822  0.74235329  0.22932591  1.0
  Ti  Ti650  1  0.25865822  0.88521043  0.22932591  1.0
  Ti  Ti651  1  0.36976933  0.02806757  0.22932591  1.0
  Ti  Ti652  1  0.36976933  0.17092472  0.22932591  1.0
  Ti  Ti653  1  0.36976933  0.31378186  0.22932591  1.0
  Ti  Ti654  1  0.36976933  0.45663900  0.22932591  1.0
  Ti  Ti655  1  0.36976933  0.59949615  0.22932591  1.0
  Ti  Ti656  1  0.36976933  0.74235329  0.22932591  1.0
  Ti  Ti657  1  0.36976933  0.88521043  0.22932591  1.0
  Ti  Ti658  1  0.48088044  0.02806757  0.22932591  1.0
  Ti  Ti659  1  0.48088044  0.17092472  0.22932591  1.0
  Ti  Ti660  1  0.48088044  0.31378186  0.22932591  1.0
  Ti  Ti661  1  0.48088044  0.45663900  0.22932591  1.0
  Ti  Ti662  1  0.48088044  0.59949615  0.22932591  1.0
  Ti  Ti663  1  0.48088044  0.74235329  0.22932591  1.0
  Ti  Ti664  1  0.48088044  0.88521043  0.22932591  1.0
  Ti  Ti665  1  0.59199156  0.02806757  0.22932591  1.0
  Ti  Ti666  1  0.59199156  0.17092472  0.22932591  1.0
  Ti  Ti667  1  0.59199156  0.31378186  0.22932591  1.0
  Ti  Ti668  1  0.59199156  0.45663900  0.22932591  1.0
  Ti  Ti669  1  0.59199156  0.59949615  0.22932591  1.0
  Ti  Ti670  1  0.59199156  0.74235329  0.22932591  1.0
  Ti  Ti671  1  0.59199156  0.88521043  0.22932591  1.0
  Ti  Ti672  1  0.70310267  0.02806757  0.22932591  1.0
  Ti  Ti673  1  0.70310267  0.17092472  0.22932591  1.0
  Ti  Ti674  1  0.70310267  0.31378186  0.22932591  1.0
  Ti  Ti675  1  0.70310267  0.45663900  0.22932591  1.0
  Ti  Ti676  1  0.70310267  0.59949615  0.22932591  1.0
  Ti  Ti677  1  0.70310267  0.74235329  0.22932591  1.0
  Ti  Ti678  1  0.70310267  0.88521043  0.22932591  1.0
  Ti  Ti679  1  0.81421378  0.02806757  0.22932591  1.0
  Ti  Ti680  1  0.81421378  0.17092472  0.22932591  1.0
  Ti  Ti681  1  0.81421378  0.31378186  0.22932591  1.0
  Ti  Ti682  1  0.81421378  0.45663900  0.22932591  1.0
  Ti  Ti683  1  0.81421378  0.59949615  0.22932591  1.0
  Ti  Ti684  1  0.81421378  0.74235329  0.22932591  1.0
  Ti  Ti685  1  0.81421378  0.88521043  0.22932591  1.0
  Ti  Ti686  1  0.92532489  0.02806757  0.22932591  1.0
  Ti  Ti687  1  0.92532489  0.17092472  0.22932591  1.0
  Ti  Ti688  1  0.92532489  0.31378186  0.22932591  1.0
  Ti  Ti689  1  0.92532489  0.45663900  0.22932591  1.0
  Ti  Ti690  1  0.92532489  0.59949615  0.22932591  1.0
  Ti  Ti691  1  0.92532489  0.74235329  0.22932591  1.0
  Ti  Ti692  1  0.92532489  0.88521043  0.22932591  1.0
  Ti  Ti693  1  0.05760002  0.04167302  0.27694496  1.0
  Ti  Ti694  1  0.05760002  0.18453016  0.27694496  1.0
  Ti  Ti695  1  0.05760002  0.32738730  0.27694496  1.0
  Ti  Ti696  1  0.05760002  0.47024444  0.27694496  1.0
  Ti  Ti697  1  0.05760002  0.61310159  0.27694496  1.0
  Ti  Ti698  1  0.05760002  0.75595873  0.27694496  1.0
  Ti  Ti699  1  0.05760002  0.89881587  0.27694496  1.0
  Ti  Ti700  1  0.16871113  0.04167302  0.27694496  1.0
  Ti  Ti701  1  0.16871113  0.18453016  0.27694496  1.0
  Ti  Ti702  1  0.16871113  0.32738730  0.27694496  1.0
  Ti  Ti703  1  0.16871113  0.47024444  0.27694496  1.0
  Ti  Ti704  1  0.16871113  0.61310159  0.27694496  1.0
  Ti  Ti705  1  0.16871113  0.75595873  0.27694496  1.0
  Ti  Ti706  1  0.16871113  0.89881587  0.27694496  1.0
  Ti  Ti707  1  0.27982224  0.04167302  0.27694496  1.0
  Ti  Ti708  1  0.27982224  0.18453016  0.27694496  1.0
  Ti  Ti709  1  0.27982224  0.32738730  0.27694496  1.0
  Ti  Ti710  1  0.27982224  0.47024444  0.27694496  1.0
  Ti  Ti711  1  0.27982224  0.61310159  0.27694496  1.0
  Ti  Ti712  1  0.27982224  0.75595873  0.27694496  1.0
  Ti  Ti713  1  0.27982224  0.89881587  0.27694496  1.0
  Ti  Ti714  1  0.39093335  0.04167302  0.27694496  1.0
  Ti  Ti715  1  0.39093335  0.18453016  0.27694496  1.0
  Ti  Ti716  1  0.39093335  0.32738730  0.27694496  1.0
  Ti  Ti717  1  0.39093335  0.47024444  0.27694496  1.0
  Ti  Ti718  1  0.39093335  0.61310159  0.27694496  1.0
  Ti  Ti719  1  0.39093335  0.75595873  0.27694496  1.0
  Ti  Ti720  1  0.39093335  0.89881587  0.27694496  1.0
  Ti  Ti721  1  0.50204447  0.04167302  0.27694496  1.0
  Ti  Ti722  1  0.50204447  0.18453016  0.27694496  1.0
  Ti  Ti723  1  0.50204447  0.32738730  0.27694496  1.0
  Ti  Ti724  1  0.50204447  0.47024444  0.27694496  1.0
  Ti  Ti725  1  0.50204447  0.61310159  0.27694496  1.0
  Ti  Ti726  1  0.50204447  0.75595873  0.27694496  1.0
  Ti  Ti727  1  0.50204447  0.89881587  0.27694496  1.0
  Ti  Ti728  1  0.61315558  0.04167302  0.27694496  1.0
  Ti  Ti729  1  0.61315558  0.18453016  0.27694496  1.0
  Ti  Ti730  1  0.61315558  0.32738730  0.27694496  1.0
  Ti  Ti731  1  0.61315558  0.47024444  0.27694496  1.0
  Ti  Ti732  1  0.61315558  0.61310159  0.27694496  1.0
  Ti  Ti733  1  0.61315558  0.75595873  0.27694496  1.0
  Ti  Ti734  1  0.61315558  0.89881587  0.27694496  1.0
  Ti  Ti735  1  0.72426669  0.04167302  0.27694496  1.0
  Ti  Ti736  1  0.72426669  0.18453016  0.27694496  1.0
  Ti  Ti737  1  0.72426669  0.32738730  0.27694496  1.0
  Ti  Ti738  1  0.72426669  0.47024444  0.27694496  1.0
  Ti  Ti739  1  0.72426669  0.61310159  0.27694496  1.0
  Ti  Ti740  1  0.72426669  0.75595873  0.27694496  1.0
  Ti  Ti741  1  0.72426669  0.89881587  0.27694496  1.0
  Ti  Ti742  1  0.83537780  0.04167302  0.27694496  1.0
  Ti  Ti743  1  0.83537780  0.18453016  0.27694496  1.0
  Ti  Ti744  1  0.83537780  0.32738730  0.27694496  1.0
  Ti  Ti745  1  0.83537780  0.47024444  0.27694496  1.0
  Ti  Ti746  1  0.83537780  0.61310159  0.27694496  1.0
  Ti  Ti747  1  0.83537780  0.75595873  0.27694496  1.0
  Ti  Ti748  1  0.83537780  0.89881587  0.27694496  1.0
  Ti  Ti749  1  0.94648891  0.04167302  0.27694496  1.0
  Ti  Ti750  1  0.94648891  0.18453016  0.27694496  1.0
  Ti  Ti751  1  0.94648891  0.32738730  0.27694496  1.0
  Ti  Ti752  1  0.94648891  0.47024444  0.27694496  1.0
  Ti  Ti753  1  0.94648891  0.61310159  0.27694496  1.0
  Ti  Ti754  1  0.94648891  0.75595873  0.27694496  1.0
  Ti  Ti755  1  0.94648891  0.89881587  0.27694496  1.0
  Ti  Ti756  1  0.00678548  0.01154412  0.42149384  1.0
  Ti  Ti757  1  0.00678548  0.15440127  0.42149384  1.0
  Ti  Ti758  1  0.00678548  0.29725841  0.42149384  1.0
  Ti  Ti759  1  0.00678548  0.44011555  0.42149384  1.0
  Ti  Ti760  1  0.00678548  0.58297270  0.42149384  1.0
  Ti  Ti761  1  0.00678548  0.72582984  0.42149384  1.0
  Ti  Ti762  1  0.00678548  0.86868698  0.42149384  1.0
  Ti  Ti763  1  0.11789659  0.01154412  0.42149384  1.0
  Ti  Ti764  1  0.11789659  0.15440127  0.42149384  1.0
  Ti  Ti765  1  0.11789659  0.29725841  0.42149384  1.0
  Ti  Ti766  1  0.11789659  0.44011555  0.42149384  1.0
  Ti  Ti767  1  0.11789659  0.58297270  0.42149384  1.0
  Ti  Ti768  1  0.11789659  0.72582984  0.42149384  1.0
  Ti  Ti769  1  0.11789659  0.86868698  0.42149384  1.0
  Ti  Ti770  1  0.22900770  0.01154412  0.42149384  1.0
  Ti  Ti771  1  0.22900770  0.15440127  0.42149384  1.0
  Ti  Ti772  1  0.22900770  0.29725841  0.42149384  1.0
  Ti  Ti773  1  0.22900770  0.44011555  0.42149384  1.0
  Ti  Ti774  1  0.22900770  0.58297270  0.42149384  1.0
  Ti  Ti775  1  0.22900770  0.72582984  0.42149384  1.0
  Ti  Ti776  1  0.22900770  0.86868698  0.42149384  1.0
  Ti  Ti777  1  0.34011881  0.01154412  0.42149384  1.0
  Ti  Ti778  1  0.34011881  0.15440127  0.42149384  1.0
  Ti  Ti779  1  0.34011881  0.29725841  0.42149384  1.0
  Ti  Ti780  1  0.34011881  0.44011555  0.42149384  1.0
  Ti  Ti781  1  0.34011881  0.58297270  0.42149384  1.0
  Ti  Ti782  1  0.34011881  0.72582984  0.42149384  1.0
  Ti  Ti783  1  0.34011881  0.86868698  0.42149384  1.0
  Ti  Ti784  1  0.45122992  0.01154412  0.42149384  1.0
  Ti  Ti785  1  0.45122992  0.15440127  0.42149384  1.0
  Ti  Ti786  1  0.45122992  0.29725841  0.42149384  1.0
  Ti  Ti787  1  0.45122992  0.44011555  0.42149384  1.0
  Ti  Ti788  1  0.45122992  0.58297270  0.42149384  1.0
  Ti  Ti789  1  0.45122992  0.72582984  0.42149384  1.0
  Ti  Ti790  1  0.45122992  0.86868698  0.42149384  1.0
  Ti  Ti791  1  0.56234103  0.01154412  0.42149384  1.0
  Ti  Ti792  1  0.56234103  0.15440127  0.42149384  1.0
  Ti  Ti793  1  0.56234103  0.29725841  0.42149384  1.0
  Ti  Ti794  1  0.56234103  0.44011555  0.42149384  1.0
  Ti  Ti795  1  0.56234103  0.58297270  0.42149384  1.0
  Ti  Ti796  1  0.56234103  0.72582984  0.42149384  1.0
  Ti  Ti797  1  0.56234103  0.86868698  0.42149384  1.0
  Ti  Ti798  1  0.67345214  0.01154412  0.42149384  1.0
  Ti  Ti799  1  0.67345214  0.15440127  0.42149384  1.0
  Ti  Ti800  1  0.67345214  0.29725841  0.42149384  1.0
  Ti  Ti801  1  0.67345214  0.44011555  0.42149384  1.0
  Ti  Ti802  1  0.67345214  0.58297270  0.42149384  1.0
  Ti  Ti803  1  0.67345214  0.72582984  0.42149384  1.0
  Ti  Ti804  1  0.67345214  0.86868698  0.42149384  1.0
  Ti  Ti805  1  0.78456325  0.01154412  0.42149384  1.0
  Ti  Ti806  1  0.78456325  0.15440127  0.42149384  1.0
  Ti  Ti807  1  0.78456325  0.29725841  0.42149384  1.0
  Ti  Ti808  1  0.78456325  0.44011555  0.42149384  1.0
  Ti  Ti809  1  0.78456325  0.58297270  0.42149384  1.0
  Ti  Ti810  1  0.78456325  0.72582984  0.42149384  1.0
  Ti  Ti811  1  0.78456325  0.86868698  0.42149384  1.0
  Ti  Ti812  1  0.89567437  0.01154412  0.42149384  1.0
  Ti  Ti813  1  0.89567437  0.15440127  0.42149384  1.0
  Ti  Ti814  1  0.89567437  0.29725841  0.42149384  1.0
  Ti  Ti815  1  0.89567437  0.44011555  0.42149384  1.0
  Ti  Ti816  1  0.89567437  0.58297270  0.42149384  1.0
  Ti  Ti817  1  0.89567437  0.72582984  0.42149384  1.0
  Ti  Ti818  1  0.89567437  0.86868698  0.42149384  1.0
  Ti  Ti819  1  0.02794950  0.02514957  0.46911288  1.0
  Ti  Ti820  1  0.02794950  0.16800671  0.46911288  1.0
  Ti  Ti821  1  0.02794950  0.31086385  0.46911288  1.0
  Ti  Ti822  1  0.02794950  0.45372099  0.46911288  1.0
  Ti  Ti823  1  0.02794950  0.59657814  0.46911288  1.0
  Ti  Ti824  1  0.02794950  0.73943528  0.46911288  1.0
  Ti  Ti825  1  0.02794950  0.88229242  0.46911288  1.0
  Ti  Ti826  1  0.13906061  0.02514957  0.46911288  1.0
  Ti  Ti827  1  0.13906061  0.16800671  0.46911288  1.0
  Ti  Ti828  1  0.13906061  0.31086385  0.46911288  1.0
  Ti  Ti829  1  0.13906061  0.45372099  0.46911288  1.0
  Ti  Ti830  1  0.13906061  0.59657814  0.46911288  1.0
  Ti  Ti831  1  0.13906061  0.73943528  0.46911288  1.0
  Ti  Ti832  1  0.13906061  0.88229242  0.46911288  1.0
  Ti  Ti833  1  0.25017172  0.02514957  0.46911288  1.0
  Ti  Ti834  1  0.25017172  0.16800671  0.46911288  1.0
  Ti  Ti835  1  0.25017172  0.31086385  0.46911288  1.0
  Ti  Ti836  1  0.25017172  0.45372099  0.46911288  1.0
  Ti  Ti837  1  0.25017172  0.59657814  0.46911288  1.0
  Ti  Ti838  1  0.25017172  0.73943528  0.46911288  1.0
  Ti  Ti839  1  0.25017172  0.88229242  0.46911288  1.0
  Ti  Ti840  1  0.36128283  0.02514957  0.46911288  1.0
  Ti  Ti841  1  0.36128283  0.16800671  0.46911288  1.0
  Ti  Ti842  1  0.36128283  0.31086385  0.46911288  1.0
  Ti  Ti843  1  0.36128283  0.45372099  0.46911288  1.0
  Ti  Ti844  1  0.36128283  0.59657814  0.46911288  1.0
  Ti  Ti845  1  0.36128283  0.73943528  0.46911288  1.0
  Ti  Ti846  1  0.36128283  0.88229242  0.46911288  1.0
  Ti  Ti847  1  0.47239394  0.02514957  0.46911288  1.0
  Ti  Ti848  1  0.47239394  0.16800671  0.46911288  1.0
  Ti  Ti849  1  0.47239394  0.31086385  0.46911288  1.0
  Ti  Ti850  1  0.47239394  0.45372099  0.46911288  1.0
  Ti  Ti851  1  0.47239394  0.59657814  0.46911288  1.0
  Ti  Ti852  1  0.47239394  0.73943528  0.46911288  1.0
  Ti  Ti853  1  0.47239394  0.88229242  0.46911288  1.0
  Ti  Ti854  1  0.58350505  0.02514957  0.46911288  1.0
  Ti  Ti855  1  0.58350505  0.16800671  0.46911288  1.0
  Ti  Ti856  1  0.58350505  0.31086385  0.46911288  1.0
  Ti  Ti857  1  0.58350505  0.45372099  0.46911288  1.0
  Ti  Ti858  1  0.58350505  0.59657814  0.46911288  1.0
  Ti  Ti859  1  0.58350505  0.73943528  0.46911288  1.0
  Ti  Ti860  1  0.58350505  0.88229242  0.46911288  1.0
  Ti  Ti861  1  0.69461616  0.02514957  0.46911288  1.0
  Ti  Ti862  1  0.69461616  0.16800671  0.46911288  1.0
  Ti  Ti863  1  0.69461616  0.31086385  0.46911288  1.0
  Ti  Ti864  1  0.69461616  0.45372099  0.46911288  1.0
  Ti  Ti865  1  0.69461616  0.59657814  0.46911288  1.0
  Ti  Ti866  1  0.69461616  0.73943528  0.46911288  1.0
  Ti  Ti867  1  0.69461616  0.88229242  0.46911288  1.0
  Ti  Ti868  1  0.80572728  0.02514957  0.46911288  1.0
  Ti  Ti869  1  0.80572728  0.16800671  0.46911288  1.0
  Ti  Ti870  1  0.80572728  0.31086385  0.46911288  1.0
  Ti  Ti871  1  0.80572728  0.45372099  0.46911288  1.0
  Ti  Ti872  1  0.80572728  0.59657814  0.46911288  1.0
  Ti  Ti873  1  0.80572728  0.73943528  0.46911288  1.0
  Ti  Ti874  1  0.80572728  0.88229242  0.46911288  1.0
  Ti  Ti875  1  0.91683839  0.02514957  0.46911288  1.0
  Ti  Ti876  1  0.91683839  0.16800671  0.46911288  1.0
  Ti  Ti877  1  0.91683839  0.31086385  0.46911288  1.0
  Ti  Ti878  1  0.91683839  0.45372099  0.46911288  1.0
  Ti  Ti879  1  0.91683839  0.59657814  0.46911288  1.0
  Ti  Ti880  1  0.91683839  0.73943528  0.46911288  1.0
  Ti  Ti881  1  0.91683839  0.88229242  0.46911288  1.0
  Ti  Ti882  1  0.09673257  0.14079582  0.37387479  1.0
  Ti  Ti883  1  0.09673257  0.28365297  0.37387479  1.0
  Ti  Ti884  1  0.09673257  0.42651011  0.37387479  1.0
  Ti  Ti885  1  0.09673257  0.56936725  0.37387479  1.0
  Ti  Ti886  1  0.09673257  0.71222440  0.37387479  1.0
  Ti  Ti887  1  0.09673257  0.85508154  0.37387479  1.0
  Ti  Ti888  1  0.09673257  0.99793868  0.37387479  1.0
  Ti  Ti889  1  0.20784368  0.14079582  0.37387479  1.0
  Ti  Ti890  1  0.20784368  0.28365297  0.37387479  1.0
  Ti  Ti891  1  0.20784368  0.42651011  0.37387479  1.0
  Ti  Ti892  1  0.20784368  0.56936725  0.37387479  1.0
  Ti  Ti893  1  0.20784368  0.71222440  0.37387479  1.0
  Ti  Ti894  1  0.20784368  0.85508154  0.37387479  1.0
  Ti  Ti895  1  0.20784368  0.99793868  0.37387479  1.0
  Ti  Ti896  1  0.31895479  0.14079582  0.37387479  1.0
  Ti  Ti897  1  0.31895479  0.28365297  0.37387479  1.0
  Ti  Ti898  1  0.31895479  0.42651011  0.37387479  1.0
  Ti  Ti899  1  0.31895479  0.56936725  0.37387479  1.0
  Ti  Ti900  1  0.31895479  0.71222440  0.37387479  1.0
  Ti  Ti901  1  0.31895479  0.85508154  0.37387479  1.0
  Ti  Ti902  1  0.31895479  0.99793868  0.37387479  1.0
  Ti  Ti903  1  0.43006590  0.14079582  0.37387479  1.0
  Ti  Ti904  1  0.43006590  0.28365297  0.37387479  1.0
  Ti  Ti905  1  0.43006590  0.42651011  0.37387479  1.0
  Ti  Ti906  1  0.43006590  0.56936725  0.37387479  1.0
  Ti  Ti907  1  0.43006590  0.71222440  0.37387479  1.0
  Ti  Ti908  1  0.43006590  0.85508154  0.37387479  1.0
  Ti  Ti909  1  0.43006590  0.99793868  0.37387479  1.0
  Ti  Ti910  1  0.54117701  0.14079582  0.37387479  1.0
  Ti  Ti911  1  0.54117701  0.28365297  0.37387479  1.0
  Ti  Ti912  1  0.54117701  0.42651011  0.37387479  1.0
  Ti  Ti913  1  0.54117701  0.56936725  0.37387479  1.0
  Ti  Ti914  1  0.54117701  0.71222440  0.37387479  1.0
  Ti  Ti915  1  0.54117701  0.85508154  0.37387479  1.0
  Ti  Ti916  1  0.54117701  0.99793868  0.37387479  1.0
  Ti  Ti917  1  0.65228812  0.14079582  0.37387479  1.0
  Ti  Ti918  1  0.65228812  0.28365297  0.37387479  1.0
  Ti  Ti919  1  0.65228812  0.42651011  0.37387479  1.0
  Ti  Ti920  1  0.65228812  0.56936725  0.37387479  1.0
  Ti  Ti921  1  0.65228812  0.71222440  0.37387479  1.0
  Ti  Ti922  1  0.65228812  0.85508154  0.37387479  1.0
  Ti  Ti923  1  0.65228812  0.99793868  0.37387479  1.0
  Ti  Ti924  1  0.76339923  0.14079582  0.37387479  1.0
  Ti  Ti925  1  0.76339923  0.28365297  0.37387479  1.0
  Ti  Ti926  1  0.76339923  0.42651011  0.37387479  1.0
  Ti  Ti927  1  0.76339923  0.56936725  0.37387479  1.0
  Ti  Ti928  1  0.76339923  0.71222440  0.37387479  1.0
  Ti  Ti929  1  0.76339923  0.85508154  0.37387479  1.0
  Ti  Ti930  1  0.76339923  0.99793868  0.37387479  1.0
  Ti  Ti931  1  0.87451034  0.14079582  0.37387479  1.0
  Ti  Ti932  1  0.87451034  0.28365297  0.37387479  1.0
  Ti  Ti933  1  0.87451034  0.42651011  0.37387479  1.0
  Ti  Ti934  1  0.87451034  0.56936725  0.37387479  1.0
  Ti  Ti935  1  0.87451034  0.71222440  0.37387479  1.0
  Ti  Ti936  1  0.87451034  0.85508154  0.37387479  1.0
  Ti  Ti937  1  0.87451034  0.99793868  0.37387479  1.0
  Ti  Ti938  1  0.98562146  0.14079582  0.37387479  1.0
  Ti  Ti939  1  0.98562146  0.28365297  0.37387479  1.0
  Ti  Ti940  1  0.98562146  0.42651011  0.37387479  1.0
  Ti  Ti941  1  0.98562146  0.56936725  0.37387479  1.0
  Ti  Ti942  1  0.98562146  0.71222440  0.37387479  1.0
  Ti  Ti943  1  0.98562146  0.85508154  0.37387479  1.0
  Ti  Ti944  1  0.98562146  0.99793868  0.37387479  1.0
  Ti  Ti945  1  0.07257960  0.11090486  0.43564902  1.0
  Ti  Ti946  1  0.07257960  0.25376200  0.43564902  1.0
  Ti  Ti947  1  0.07257960  0.39661914  0.43564902  1.0
  Ti  Ti948  1  0.07257960  0.53947628  0.43564902  1.0
  Ti  Ti949  1  0.07257960  0.68233343  0.43564902  1.0
  Ti  Ti950  1  0.07257960  0.82519057  0.43564902  1.0
  Ti  Ti951  1  0.07257960  0.96804771  0.43564902  1.0
  Ti  Ti952  1  0.18369071  0.11090486  0.43564902  1.0
  Ti  Ti953  1  0.18369071  0.25376200  0.43564902  1.0
  Ti  Ti954  1  0.18369071  0.39661914  0.43564902  1.0
  Ti  Ti955  1  0.18369071  0.53947628  0.43564902  1.0
  Ti  Ti956  1  0.18369071  0.68233343  0.43564902  1.0
  Ti  Ti957  1  0.18369071  0.82519057  0.43564902  1.0
  Ti  Ti958  1  0.18369071  0.96804771  0.43564902  1.0
  Ti  Ti959  1  0.29480182  0.11090486  0.43564902  1.0
  Ti  Ti960  1  0.29480182  0.25376200  0.43564902  1.0
  Ti  Ti961  1  0.29480182  0.39661914  0.43564902  1.0
  Ti  Ti962  1  0.29480182  0.53947628  0.43564902  1.0
  Ti  Ti963  1  0.29480182  0.68233343  0.43564902  1.0
  Ti  Ti964  1  0.29480182  0.82519057  0.43564902  1.0
  Ti  Ti965  1  0.29480182  0.96804771  0.43564902  1.0
  Ti  Ti966  1  0.40591294  0.11090486  0.43564902  1.0
  Ti  Ti967  1  0.40591294  0.25376200  0.43564902  1.0
  Ti  Ti968  1  0.40591294  0.39661914  0.43564902  1.0
  Ti  Ti969  1  0.40591294  0.53947628  0.43564902  1.0
  Ti  Ti970  1  0.40591294  0.68233343  0.43564902  1.0
  Ti  Ti971  1  0.40591294  0.82519057  0.43564902  1.0
  Ti  Ti972  1  0.40591294  0.96804771  0.43564902  1.0
  Ti  Ti973  1  0.51702405  0.11090486  0.43564902  1.0
  Ti  Ti974  1  0.51702405  0.25376200  0.43564902  1.0
  Ti  Ti975  1  0.51702405  0.39661914  0.43564902  1.0
  Ti  Ti976  1  0.51702405  0.53947628  0.43564902  1.0
  Ti  Ti977  1  0.51702405  0.68233343  0.43564902  1.0
  Ti  Ti978  1  0.51702405  0.82519057  0.43564902  1.0
  Ti  Ti979  1  0.51702405  0.96804771  0.43564902  1.0
  Ti  Ti980  1  0.62813516  0.11090486  0.43564902  1.0
  Ti  Ti981  1  0.62813516  0.25376200  0.43564902  1.0
  Ti  Ti982  1  0.62813516  0.39661914  0.43564902  1.0
  Ti  Ti983  1  0.62813516  0.53947628  0.43564902  1.0
  Ti  Ti984  1  0.62813516  0.68233343  0.43564902  1.0
  Ti  Ti985  1  0.62813516  0.82519057  0.43564902  1.0
  Ti  Ti986  1  0.62813516  0.96804771  0.43564902  1.0
  Ti  Ti987  1  0.73924627  0.11090486  0.43564902  1.0
  Ti  Ti988  1  0.73924627  0.25376200  0.43564902  1.0
  Ti  Ti989  1  0.73924627  0.39661914  0.43564902  1.0
  Ti  Ti990  1  0.73924627  0.53947628  0.43564902  1.0
  Ti  Ti991  1  0.73924627  0.68233343  0.43564902  1.0
  Ti  Ti992  1  0.73924627  0.82519057  0.43564902  1.0
  Ti  Ti993  1  0.73924627  0.96804771  0.43564902  1.0
  Ti  Ti994  1  0.85035738  0.11090486  0.43564902  1.0
  Ti  Ti995  1  0.85035738  0.25376200  0.43564902  1.0
  Ti  Ti996  1  0.85035738  0.39661914  0.43564902  1.0
  Ti  Ti997  1  0.85035738  0.53947628  0.43564902  1.0
  Ti  Ti998  1  0.85035738  0.68233343  0.43564902  1.0
  Ti  Ti999  1  0.85035738  0.82519057  0.43564902  1.0
  Ti  Ti1000  1  0.85035738  0.96804771  0.43564902  1.0
  Ti  Ti1001  1  0.96146849  0.11090486  0.43564902  1.0
  Ti  Ti1002  1  0.96146849  0.25376200  0.43564902  1.0
  Ti  Ti1003  1  0.96146849  0.39661914  0.43564902  1.0
  Ti  Ti1004  1  0.96146849  0.53947628  0.43564902  1.0
  Ti  Ti1005  1  0.96146849  0.68233343  0.43564902  1.0
  Ti  Ti1006  1  0.96146849  0.82519057  0.43564902  1.0
  Ti  Ti1007  1  0.96146849  0.96804771  0.43564902  1.0
  Ti  Ti1008  1  0.09374362  0.12451030  0.48326807  1.0
  Ti  Ti1009  1  0.09374362  0.26736744  0.48326807  1.0
  Ti  Ti1010  1  0.09374362  0.41022458  0.48326807  1.0
  Ti  Ti1011  1  0.09374362  0.55308173  0.48326807  1.0
  Ti  Ti1012  1  0.09374362  0.69593887  0.48326807  1.0
  Ti  Ti1013  1  0.09374362  0.83879601  0.48326807  1.0
  Ti  Ti1014  1  0.09374362  0.98165316  0.48326807  1.0
  Ti  Ti1015  1  0.20485473  0.12451030  0.48326807  1.0
  Ti  Ti1016  1  0.20485473  0.26736744  0.48326807  1.0
  Ti  Ti1017  1  0.20485473  0.41022458  0.48326807  1.0
  Ti  Ti1018  1  0.20485473  0.55308173  0.48326807  1.0
  Ti  Ti1019  1  0.20485473  0.69593887  0.48326807  1.0
  Ti  Ti1020  1  0.20485473  0.83879601  0.48326807  1.0
  Ti  Ti1021  1  0.20485473  0.98165316  0.48326807  1.0
  Ti  Ti1022  1  0.31596585  0.12451030  0.48326807  1.0
  Ti  Ti1023  1  0.31596585  0.26736744  0.48326807  1.0
  Ti  Ti1024  1  0.31596585  0.41022458  0.48326807  1.0
  Ti  Ti1025  1  0.31596585  0.55308173  0.48326807  1.0
  Ti  Ti1026  1  0.31596585  0.69593887  0.48326807  1.0
  Ti  Ti1027  1  0.31596585  0.83879601  0.48326807  1.0
  Ti  Ti1028  1  0.31596585  0.98165316  0.48326807  1.0
  Ti  Ti1029  1  0.42707696  0.12451030  0.48326807  1.0
  Ti  Ti1030  1  0.42707696  0.26736744  0.48326807  1.0
  Ti  Ti1031  1  0.42707696  0.41022458  0.48326807  1.0
  Ti  Ti1032  1  0.42707696  0.55308173  0.48326807  1.0
  Ti  Ti1033  1  0.42707696  0.69593887  0.48326807  1.0
  Ti  Ti1034  1  0.42707696  0.83879601  0.48326807  1.0
  Ti  Ti1035  1  0.42707696  0.98165316  0.48326807  1.0
  Ti  Ti1036  1  0.53818807  0.12451030  0.48326807  1.0
  Ti  Ti1037  1  0.53818807  0.26736744  0.48326807  1.0
  Ti  Ti1038  1  0.53818807  0.41022458  0.48326807  1.0
  Ti  Ti1039  1  0.53818807  0.55308173  0.48326807  1.0
  Ti  Ti1040  1  0.53818807  0.69593887  0.48326807  1.0
  Ti  Ti1041  1  0.53818807  0.83879601  0.48326807  1.0
  Ti  Ti1042  1  0.53818807  0.98165316  0.48326807  1.0
  Ti  Ti1043  1  0.64929918  0.12451030  0.48326807  1.0
  Ti  Ti1044  1  0.64929918  0.26736744  0.48326807  1.0
  Ti  Ti1045  1  0.64929918  0.41022458  0.48326807  1.0
  Ti  Ti1046  1  0.64929918  0.55308173  0.48326807  1.0
  Ti  Ti1047  1  0.64929918  0.69593887  0.48326807  1.0
  Ti  Ti1048  1  0.64929918  0.83879601  0.48326807  1.0
  Ti  Ti1049  1  0.64929918  0.98165316  0.48326807  1.0
  Ti  Ti1050  1  0.76041029  0.12451030  0.48326807  1.0
  Ti  Ti1051  1  0.76041029  0.26736744  0.48326807  1.0
  Ti  Ti1052  1  0.76041029  0.41022458  0.48326807  1.0
  Ti  Ti1053  1  0.76041029  0.55308173  0.48326807  1.0
  Ti  Ti1054  1  0.76041029  0.69593887  0.48326807  1.0
  Ti  Ti1055  1  0.76041029  0.83879601  0.48326807  1.0
  Ti  Ti1056  1  0.76041029  0.98165316  0.48326807  1.0
  Ti  Ti1057  1  0.87152140  0.12451030  0.48326807  1.0
  Ti  Ti1058  1  0.87152140  0.26736744  0.48326807  1.0
  Ti  Ti1059  1  0.87152140  0.41022458  0.48326807  1.0
  Ti  Ti1060  1  0.87152140  0.55308173  0.48326807  1.0
  Ti  Ti1061  1  0.87152140  0.69593887  0.48326807  1.0
  Ti  Ti1062  1  0.87152140  0.83879601  0.48326807  1.0
  Ti  Ti1063  1  0.87152140  0.98165316  0.48326807  1.0
  Ti  Ti1064  1  0.98263251  0.12451030  0.48326807  1.0
  Ti  Ti1065  1  0.98263251  0.26736744  0.48326807  1.0
  Ti  Ti1066  1  0.98263251  0.41022458  0.48326807  1.0
  Ti  Ti1067  1  0.98263251  0.55308173  0.48326807  1.0
  Ti  Ti1068  1  0.98263251  0.69593887  0.48326807  1.0
  Ti  Ti1069  1  0.98263251  0.83879601  0.48326807  1.0
  Ti  Ti1070  1  0.98263251  0.98165316  0.48326807  1.0
  Ti  Ti1071  1  0.05141558  0.09729941  0.38802997  1.0
  Ti  Ti1072  1  0.05141558  0.24015656  0.38802997  1.0
  Ti  Ti1073  1  0.05141558  0.38301370  0.38802997  1.0
  Ti  Ti1074  1  0.05141558  0.52587084  0.38802997  1.0
  Ti  Ti1075  1  0.05141558  0.66872799  0.38802997  1.0
  Ti  Ti1076  1  0.05141558  0.81158513  0.38802997  1.0
  Ti  Ti1077  1  0.05141558  0.95444227  0.38802997  1.0
  Ti  Ti1078  1  0.16252669  0.09729941  0.38802997  1.0
  Ti  Ti1079  1  0.16252669  0.24015656  0.38802997  1.0
  Ti  Ti1080  1  0.16252669  0.38301370  0.38802997  1.0
  Ti  Ti1081  1  0.16252669  0.52587084  0.38802997  1.0
  Ti  Ti1082  1  0.16252669  0.66872799  0.38802997  1.0
  Ti  Ti1083  1  0.16252669  0.81158513  0.38802997  1.0
  Ti  Ti1084  1  0.16252669  0.95444227  0.38802997  1.0
  Ti  Ti1085  1  0.27363780  0.09729941  0.38802997  1.0
  Ti  Ti1086  1  0.27363780  0.24015656  0.38802997  1.0
  Ti  Ti1087  1  0.27363780  0.38301370  0.38802997  1.0
  Ti  Ti1088  1  0.27363780  0.52587084  0.38802997  1.0
  Ti  Ti1089  1  0.27363780  0.66872799  0.38802997  1.0
  Ti  Ti1090  1  0.27363780  0.81158513  0.38802997  1.0
  Ti  Ti1091  1  0.27363780  0.95444227  0.38802997  1.0
  Ti  Ti1092  1  0.38474891  0.09729941  0.38802997  1.0
  Ti  Ti1093  1  0.38474891  0.24015656  0.38802997  1.0
  Ti  Ti1094  1  0.38474891  0.38301370  0.38802997  1.0
  Ti  Ti1095  1  0.38474891  0.52587084  0.38802997  1.0
  Ti  Ti1096  1  0.38474891  0.66872799  0.38802997  1.0
  Ti  Ti1097  1  0.38474891  0.81158513  0.38802997  1.0
  Ti  Ti1098  1  0.38474891  0.95444227  0.38802997  1.0
  Ti  Ti1099  1  0.49586003  0.09729941  0.38802997  1.0
  Ti  Ti1100  1  0.49586003  0.24015656  0.38802997  1.0
  Ti  Ti1101  1  0.49586003  0.38301370  0.38802997  1.0
  Ti  Ti1102  1  0.49586003  0.52587084  0.38802997  1.0
  Ti  Ti1103  1  0.49586003  0.66872799  0.38802997  1.0
  Ti  Ti1104  1  0.49586003  0.81158513  0.38802997  1.0
  Ti  Ti1105  1  0.49586003  0.95444227  0.38802997  1.0
  Ti  Ti1106  1  0.60697114  0.09729941  0.38802997  1.0
  Ti  Ti1107  1  0.60697114  0.24015656  0.38802997  1.0
  Ti  Ti1108  1  0.60697114  0.38301370  0.38802997  1.0
  Ti  Ti1109  1  0.60697114  0.52587084  0.38802997  1.0
  Ti  Ti1110  1  0.60697114  0.66872799  0.38802997  1.0
  Ti  Ti1111  1  0.60697114  0.81158513  0.38802997  1.0
  Ti  Ti1112  1  0.60697114  0.95444227  0.38802997  1.0
  Ti  Ti1113  1  0.71808225  0.09729941  0.38802997  1.0
  Ti  Ti1114  1  0.71808225  0.24015656  0.38802997  1.0
  Ti  Ti1115  1  0.71808225  0.38301370  0.38802997  1.0
  Ti  Ti1116  1  0.71808225  0.52587084  0.38802997  1.0
  Ti  Ti1117  1  0.71808225  0.66872799  0.38802997  1.0
  Ti  Ti1118  1  0.71808225  0.81158513  0.38802997  1.0
  Ti  Ti1119  1  0.71808225  0.95444227  0.38802997  1.0
  Ti  Ti1120  1  0.82919336  0.09729941  0.38802997  1.0
  Ti  Ti1121  1  0.82919336  0.24015656  0.38802997  1.0
  Ti  Ti1122  1  0.82919336  0.38301370  0.38802997  1.0
  Ti  Ti1123  1  0.82919336  0.52587084  0.38802997  1.0
  Ti  Ti1124  1  0.82919336  0.66872799  0.38802997  1.0
  Ti  Ti1125  1  0.82919336  0.81158513  0.38802997  1.0
  Ti  Ti1126  1  0.82919336  0.95444227  0.38802997  1.0
  Ti  Ti1127  1  0.94030447  0.09729941  0.38802997  1.0
  Ti  Ti1128  1  0.94030447  0.24015656  0.38802997  1.0
  Ti  Ti1129  1  0.94030447  0.38301370  0.38802997  1.0
  Ti  Ti1130  1  0.94030447  0.52587084  0.38802997  1.0
  Ti  Ti1131  1  0.94030447  0.66872799  0.38802997  1.0
  Ti  Ti1132  1  0.94030447  0.81158513  0.38802997  1.0
  Ti  Ti1133  1  0.94030447  0.95444227  0.38802997  1.0
  Ti  Ti1134  1  0.04822009  0.02635419  0.38972171  1.0
  Ti  Ti1135  1  0.04822009  0.16921134  0.38972171  1.0
  Ti  Ti1136  1  0.04822009  0.31206848  0.38972171  1.0
  Ti  Ti1137  1  0.04822009  0.45492562  0.38972171  1.0
  Ti  Ti1138  1  0.04822009  0.59778277  0.38972171  1.0
  Ti  Ti1139  1  0.04822009  0.74063991  0.38972171  1.0
  Ti  Ti1140  1  0.04822009  0.88349705  0.38972171  1.0
  Ti  Ti1141  1  0.15933120  0.02635419  0.38972171  1.0
  Ti  Ti1142  1  0.15933120  0.16921134  0.38972171  1.0
  Ti  Ti1143  1  0.15933120  0.31206848  0.38972171  1.0
  Ti  Ti1144  1  0.15933120  0.45492562  0.38972171  1.0
  Ti  Ti1145  1  0.15933120  0.59778277  0.38972171  1.0
  Ti  Ti1146  1  0.15933120  0.74063991  0.38972171  1.0
  Ti  Ti1147  1  0.15933120  0.88349705  0.38972171  1.0
  Ti  Ti1148  1  0.27044231  0.02635419  0.38972171  1.0
  Ti  Ti1149  1  0.27044231  0.16921134  0.38972171  1.0
  Ti  Ti1150  1  0.27044231  0.31206848  0.38972171  1.0
  Ti  Ti1151  1  0.27044231  0.45492562  0.38972171  1.0
  Ti  Ti1152  1  0.27044231  0.59778277  0.38972171  1.0
  Ti  Ti1153  1  0.27044231  0.74063991  0.38972171  1.0
  Ti  Ti1154  1  0.27044231  0.88349705  0.38972171  1.0
  Ti  Ti1155  1  0.38155342  0.02635419  0.38972171  1.0
  Ti  Ti1156  1  0.38155342  0.16921134  0.38972171  1.0
  Ti  Ti1157  1  0.38155342  0.31206848  0.38972171  1.0
  Ti  Ti1158  1  0.38155342  0.45492562  0.38972171  1.0
  Ti  Ti1159  1  0.38155342  0.59778277  0.38972171  1.0
  Ti  Ti1160  1  0.38155342  0.74063991  0.38972171  1.0
  Ti  Ti1161  1  0.38155342  0.88349705  0.38972171  1.0
  Ti  Ti1162  1  0.49266453  0.02635419  0.38972171  1.0
  Ti  Ti1163  1  0.49266453  0.16921134  0.38972171  1.0
  Ti  Ti1164  1  0.49266453  0.31206848  0.38972171  1.0
  Ti  Ti1165  1  0.49266453  0.45492562  0.38972171  1.0
  Ti  Ti1166  1  0.49266453  0.59778277  0.38972171  1.0
  Ti  Ti1167  1  0.49266453  0.74063991  0.38972171  1.0
  Ti  Ti1168  1  0.49266453  0.88349705  0.38972171  1.0
  Ti  Ti1169  1  0.60377564  0.02635419  0.38972171  1.0
  Ti  Ti1170  1  0.60377564  0.16921134  0.38972171  1.0
  Ti  Ti1171  1  0.60377564  0.31206848  0.38972171  1.0
  Ti  Ti1172  1  0.60377564  0.45492562  0.38972171  1.0
  Ti  Ti1173  1  0.60377564  0.59778277  0.38972171  1.0
  Ti  Ti1174  1  0.60377564  0.74063991  0.38972171  1.0
  Ti  Ti1175  1  0.60377564  0.88349705  0.38972171  1.0
  Ti  Ti1176  1  0.71488675  0.02635419  0.38972171  1.0
  Ti  Ti1177  1  0.71488675  0.16921134  0.38972171  1.0
  Ti  Ti1178  1  0.71488675  0.31206848  0.38972171  1.0
  Ti  Ti1179  1  0.71488675  0.45492562  0.38972171  1.0
  Ti  Ti1180  1  0.71488675  0.59778277  0.38972171  1.0
  Ti  Ti1181  1  0.71488675  0.74063991  0.38972171  1.0
  Ti  Ti1182  1  0.71488675  0.88349705  0.38972171  1.0
  Ti  Ti1183  1  0.82599786  0.02635419  0.38972171  1.0
  Ti  Ti1184  1  0.82599786  0.16921134  0.38972171  1.0
  Ti  Ti1185  1  0.82599786  0.31206848  0.38972171  1.0
  Ti  Ti1186  1  0.82599786  0.45492562  0.38972171  1.0
  Ti  Ti1187  1  0.82599786  0.59778277  0.38972171  1.0
  Ti  Ti1188  1  0.82599786  0.74063991  0.38972171  1.0
  Ti  Ti1189  1  0.82599786  0.88349705  0.38972171  1.0
  Ti  Ti1190  1  0.93710897  0.02635419  0.38972171  1.0
  Ti  Ti1191  1  0.93710897  0.16921134  0.38972171  1.0
  Ti  Ti1192  1  0.93710897  0.31206848  0.38972171  1.0
  Ti  Ti1193  1  0.93710897  0.45492562  0.38972171  1.0
  Ti  Ti1194  1  0.93710897  0.59778277  0.38972171  1.0
  Ti  Ti1195  1  0.93710897  0.74063991  0.38972171  1.0
  Ti  Ti1196  1  0.93710897  0.88349705  0.38972171  1.0
  Ti  Ti1197  1  0.06938411  0.03995964  0.43734075  1.0
  Ti  Ti1198  1  0.06938411  0.18281678  0.43734075  1.0
  Ti  Ti1199  1  0.06938411  0.32567392  0.43734075  1.0
  Ti  Ti1200  1  0.06938411  0.46853107  0.43734075  1.0
  Ti  Ti1201  1  0.06938411  0.61138821  0.43734075  1.0
  Ti  Ti1202  1  0.06938411  0.75424535  0.43734075  1.0
  Ti  Ti1203  1  0.06938411  0.89710249  0.43734075  1.0
  Ti  Ti1204  1  0.18049522  0.03995964  0.43734075  1.0
  Ti  Ti1205  1  0.18049522  0.18281678  0.43734075  1.0
  Ti  Ti1206  1  0.18049522  0.32567392  0.43734075  1.0
  Ti  Ti1207  1  0.18049522  0.46853107  0.43734075  1.0
  Ti  Ti1208  1  0.18049522  0.61138821  0.43734075  1.0
  Ti  Ti1209  1  0.18049522  0.75424535  0.43734075  1.0
  Ti  Ti1210  1  0.18049522  0.89710249  0.43734075  1.0
  Ti  Ti1211  1  0.29160633  0.03995964  0.43734075  1.0
  Ti  Ti1212  1  0.29160633  0.18281678  0.43734075  1.0
  Ti  Ti1213  1  0.29160633  0.32567392  0.43734075  1.0
  Ti  Ti1214  1  0.29160633  0.46853107  0.43734075  1.0
  Ti  Ti1215  1  0.29160633  0.61138821  0.43734075  1.0
  Ti  Ti1216  1  0.29160633  0.75424535  0.43734075  1.0
  Ti  Ti1217  1  0.29160633  0.89710249  0.43734075  1.0
  Ti  Ti1218  1  0.40271744  0.03995964  0.43734075  1.0
  Ti  Ti1219  1  0.40271744  0.18281678  0.43734075  1.0
  Ti  Ti1220  1  0.40271744  0.32567392  0.43734075  1.0
  Ti  Ti1221  1  0.40271744  0.46853107  0.43734075  1.0
  Ti  Ti1222  1  0.40271744  0.61138821  0.43734075  1.0
  Ti  Ti1223  1  0.40271744  0.75424535  0.43734075  1.0
  Ti  Ti1224  1  0.40271744  0.89710249  0.43734075  1.0
  Ti  Ti1225  1  0.51382855  0.03995964  0.43734075  1.0
  Ti  Ti1226  1  0.51382855  0.18281678  0.43734075  1.0
  Ti  Ti1227  1  0.51382855  0.32567392  0.43734075  1.0
  Ti  Ti1228  1  0.51382855  0.46853107  0.43734075  1.0
  Ti  Ti1229  1  0.51382855  0.61138821  0.43734075  1.0
  Ti  Ti1230  1  0.51382855  0.75424535  0.43734075  1.0
  Ti  Ti1231  1  0.51382855  0.89710249  0.43734075  1.0
  Ti  Ti1232  1  0.62493966  0.03995964  0.43734075  1.0
  Ti  Ti1233  1  0.62493966  0.18281678  0.43734075  1.0
  Ti  Ti1234  1  0.62493966  0.32567392  0.43734075  1.0
  Ti  Ti1235  1  0.62493966  0.46853107  0.43734075  1.0
  Ti  Ti1236  1  0.62493966  0.61138821  0.43734075  1.0
  Ti  Ti1237  1  0.62493966  0.75424535  0.43734075  1.0
  Ti  Ti1238  1  0.62493966  0.89710249  0.43734075  1.0
  Ti  Ti1239  1  0.73605077  0.03995964  0.43734075  1.0
  Ti  Ti1240  1  0.73605077  0.18281678  0.43734075  1.0
  Ti  Ti1241  1  0.73605077  0.32567392  0.43734075  1.0
  Ti  Ti1242  1  0.73605077  0.46853107  0.43734075  1.0
  Ti  Ti1243  1  0.73605077  0.61138821  0.43734075  1.0
  Ti  Ti1244  1  0.73605077  0.75424535  0.43734075  1.0
  Ti  Ti1245  1  0.73605077  0.89710249  0.43734075  1.0
  Ti  Ti1246  1  0.84716188  0.03995964  0.43734075  1.0
  Ti  Ti1247  1  0.84716188  0.18281678  0.43734075  1.0
  Ti  Ti1248  1  0.84716188  0.32567392  0.43734075  1.0
  Ti  Ti1249  1  0.84716188  0.46853107  0.43734075  1.0
  Ti  Ti1250  1  0.84716188  0.61138821  0.43734075  1.0
  Ti  Ti1251  1  0.84716188  0.75424535  0.43734075  1.0
  Ti  Ti1252  1  0.84716188  0.89710249  0.43734075  1.0
  Ti  Ti1253  1  0.95827300  0.03995964  0.43734075  1.0
  Ti  Ti1254  1  0.95827300  0.18281678  0.43734075  1.0
  Ti  Ti1255  1  0.95827300  0.32567392  0.43734075  1.0
  Ti  Ti1256  1  0.95827300  0.46853107  0.43734075  1.0
  Ti  Ti1257  1  0.95827300  0.61138821  0.43734075  1.0
  Ti  Ti1258  1  0.95827300  0.75424535  0.43734075  1.0
  Ti  Ti1259  1  0.95827300  0.89710249  0.43734075  1.0
  Ti  Ti1260  1  0.09054813  0.05356508  0.48495980  1.0
  Ti  Ti1261  1  0.09054813  0.19642222  0.48495980  1.0
  Ti  Ti1262  1  0.09054813  0.33927936  0.48495980  1.0
  Ti  Ti1263  1  0.09054813  0.48213651  0.48495980  1.0
  Ti  Ti1264  1  0.09054813  0.62499365  0.48495980  1.0
  Ti  Ti1265  1  0.09054813  0.76785079  0.48495980  1.0
  Ti  Ti1266  1  0.09054813  0.91070794  0.48495980  1.0
  Ti  Ti1267  1  0.20165924  0.05356508  0.48495980  1.0
  Ti  Ti1268  1  0.20165924  0.19642222  0.48495980  1.0
  Ti  Ti1269  1  0.20165924  0.33927936  0.48495980  1.0
  Ti  Ti1270  1  0.20165924  0.48213651  0.48495980  1.0
  Ti  Ti1271  1  0.20165924  0.62499365  0.48495980  1.0
  Ti  Ti1272  1  0.20165924  0.76785079  0.48495980  1.0
  Ti  Ti1273  1  0.20165924  0.91070794  0.48495980  1.0
  Ti  Ti1274  1  0.31277035  0.05356508  0.48495980  1.0
  Ti  Ti1275  1  0.31277035  0.19642222  0.48495980  1.0
  Ti  Ti1276  1  0.31277035  0.33927936  0.48495980  1.0
  Ti  Ti1277  1  0.31277035  0.48213651  0.48495980  1.0
  Ti  Ti1278  1  0.31277035  0.62499365  0.48495980  1.0
  Ti  Ti1279  1  0.31277035  0.76785079  0.48495980  1.0
  Ti  Ti1280  1  0.31277035  0.91070794  0.48495980  1.0
  Ti  Ti1281  1  0.42388146  0.05356508  0.48495980  1.0
  Ti  Ti1282  1  0.42388146  0.19642222  0.48495980  1.0
  Ti  Ti1283  1  0.42388146  0.33927936  0.48495980  1.0
  Ti  Ti1284  1  0.42388146  0.48213651  0.48495980  1.0
  Ti  Ti1285  1  0.42388146  0.62499365  0.48495980  1.0
  Ti  Ti1286  1  0.42388146  0.76785079  0.48495980  1.0
  Ti  Ti1287  1  0.42388146  0.91070794  0.48495980  1.0
  Ti  Ti1288  1  0.53499257  0.05356508  0.48495980  1.0
  Ti  Ti1289  1  0.53499257  0.19642222  0.48495980  1.0
  Ti  Ti1290  1  0.53499257  0.33927936  0.48495980  1.0
  Ti  Ti1291  1  0.53499257  0.48213651  0.48495980  1.0
  Ti  Ti1292  1  0.53499257  0.62499365  0.48495980  1.0
  Ti  Ti1293  1  0.53499257  0.76785079  0.48495980  1.0
  Ti  Ti1294  1  0.53499257  0.91070794  0.48495980  1.0
  Ti  Ti1295  1  0.64610368  0.05356508  0.48495980  1.0
  Ti  Ti1296  1  0.64610368  0.19642222  0.48495980  1.0
  Ti  Ti1297  1  0.64610368  0.33927936  0.48495980  1.0
  Ti  Ti1298  1  0.64610368  0.48213651  0.48495980  1.0
  Ti  Ti1299  1  0.64610368  0.62499365  0.48495980  1.0
  Ti  Ti1300  1  0.64610368  0.76785079  0.48495980  1.0
  Ti  Ti1301  1  0.64610368  0.91070794  0.48495980  1.0
  Ti  Ti1302  1  0.75721479  0.05356508  0.48495980  1.0
  Ti  Ti1303  1  0.75721479  0.19642222  0.48495980  1.0
  Ti  Ti1304  1  0.75721479  0.33927936  0.48495980  1.0
  Ti  Ti1305  1  0.75721479  0.48213651  0.48495980  1.0
  Ti  Ti1306  1  0.75721479  0.62499365  0.48495980  1.0
  Ti  Ti1307  1  0.75721479  0.76785079  0.48495980  1.0
  Ti  Ti1308  1  0.75721479  0.91070794  0.48495980  1.0
  Ti  Ti1309  1  0.86832591  0.05356508  0.48495980  1.0
  Ti  Ti1310  1  0.86832591  0.19642222  0.48495980  1.0
  Ti  Ti1311  1  0.86832591  0.33927936  0.48495980  1.0
  Ti  Ti1312  1  0.86832591  0.48213651  0.48495980  1.0
  Ti  Ti1313  1  0.86832591  0.62499365  0.48495980  1.0
  Ti  Ti1314  1  0.86832591  0.76785079  0.48495980  1.0
  Ti  Ti1315  1  0.86832591  0.91070794  0.48495980  1.0
  Ti  Ti1316  1  0.97943702  0.05356508  0.48495980  1.0
  Ti  Ti1317  1  0.97943702  0.19642222  0.48495980  1.0
  Ti  Ti1318  1  0.97943702  0.33927936  0.48495980  1.0
  Ti  Ti1319  1  0.97943702  0.48213651  0.48495980  1.0
  Ti  Ti1320  1  0.97943702  0.62499365  0.48495980  1.0
  Ti  Ti1321  1  0.97943702  0.76785079  0.48495980  1.0
  Ti  Ti1322  1  0.97943702  0.91070794  0.48495980  1.0
  Ti  Ti1323  1  0.03114499  0.09609478  0.46742115  1.0
  Ti  Ti1324  1  0.03114499  0.23895193  0.46742115  1.0
  Ti  Ti1325  1  0.03114499  0.38180907  0.46742115  1.0
  Ti  Ti1326  1  0.03114499  0.52466621  0.46742115  1.0
  Ti  Ti1327  1  0.03114499  0.66752336  0.46742115  1.0
  Ti  Ti1328  1  0.03114499  0.81038050  0.46742115  1.0
  Ti  Ti1329  1  0.03114499  0.95323764  0.46742115  1.0
  Ti  Ti1330  1  0.14225611  0.09609478  0.46742115  1.0
  Ti  Ti1331  1  0.14225611  0.23895193  0.46742115  1.0
  Ti  Ti1332  1  0.14225611  0.38180907  0.46742115  1.0
  Ti  Ti1333  1  0.14225611  0.52466621  0.46742115  1.0
  Ti  Ti1334  1  0.14225611  0.66752336  0.46742115  1.0
  Ti  Ti1335  1  0.14225611  0.81038050  0.46742115  1.0
  Ti  Ti1336  1  0.14225611  0.95323764  0.46742115  1.0
  Ti  Ti1337  1  0.25336722  0.09609478  0.46742115  1.0
  Ti  Ti1338  1  0.25336722  0.23895193  0.46742115  1.0
  Ti  Ti1339  1  0.25336722  0.38180907  0.46742115  1.0
  Ti  Ti1340  1  0.25336722  0.52466621  0.46742115  1.0
  Ti  Ti1341  1  0.25336722  0.66752336  0.46742115  1.0
  Ti  Ti1342  1  0.25336722  0.81038050  0.46742115  1.0
  Ti  Ti1343  1  0.25336722  0.95323764  0.46742115  1.0
  Ti  Ti1344  1  0.36447833  0.09609478  0.46742115  1.0
  Ti  Ti1345  1  0.36447833  0.23895193  0.46742115  1.0
  Ti  Ti1346  1  0.36447833  0.38180907  0.46742115  1.0
  Ti  Ti1347  1  0.36447833  0.52466621  0.46742115  1.0
  Ti  Ti1348  1  0.36447833  0.66752336  0.46742115  1.0
  Ti  Ti1349  1  0.36447833  0.81038050  0.46742115  1.0
  Ti  Ti1350  1  0.36447833  0.95323764  0.46742115  1.0
  Ti  Ti1351  1  0.47558944  0.09609478  0.46742115  1.0
  Ti  Ti1352  1  0.47558944  0.23895193  0.46742115  1.0
  Ti  Ti1353  1  0.47558944  0.38180907  0.46742115  1.0
  Ti  Ti1354  1  0.47558944  0.52466621  0.46742115  1.0
  Ti  Ti1355  1  0.47558944  0.66752336  0.46742115  1.0
  Ti  Ti1356  1  0.47558944  0.81038050  0.46742115  1.0
  Ti  Ti1357  1  0.47558944  0.95323764  0.46742115  1.0
  Ti  Ti1358  1  0.58670055  0.09609478  0.46742115  1.0
  Ti  Ti1359  1  0.58670055  0.23895193  0.46742115  1.0
  Ti  Ti1360  1  0.58670055  0.38180907  0.46742115  1.0
  Ti  Ti1361  1  0.58670055  0.52466621  0.46742115  1.0
  Ti  Ti1362  1  0.58670055  0.66752336  0.46742115  1.0
  Ti  Ti1363  1  0.58670055  0.81038050  0.46742115  1.0
  Ti  Ti1364  1  0.58670055  0.95323764  0.46742115  1.0
  Ti  Ti1365  1  0.69781166  0.09609478  0.46742115  1.0
  Ti  Ti1366  1  0.69781166  0.23895193  0.46742115  1.0
  Ti  Ti1367  1  0.69781166  0.38180907  0.46742115  1.0
  Ti  Ti1368  1  0.69781166  0.52466621  0.46742115  1.0
  Ti  Ti1369  1  0.69781166  0.66752336  0.46742115  1.0
  Ti  Ti1370  1  0.69781166  0.81038050  0.46742115  1.0
  Ti  Ti1371  1  0.69781166  0.95323764  0.46742115  1.0
  Ti  Ti1372  1  0.80892277  0.09609478  0.46742115  1.0
  Ti  Ti1373  1  0.80892277  0.23895193  0.46742115  1.0
  Ti  Ti1374  1  0.80892277  0.38180907  0.46742115  1.0
  Ti  Ti1375  1  0.80892277  0.52466621  0.46742115  1.0
  Ti  Ti1376  1  0.80892277  0.66752336  0.46742115  1.0
  Ti  Ti1377  1  0.80892277  0.81038050  0.46742115  1.0
  Ti  Ti1378  1  0.80892277  0.95323764  0.46742115  1.0
  Ti  Ti1379  1  0.92003388  0.09609478  0.46742115  1.0
  Ti  Ti1380  1  0.92003388  0.23895193  0.46742115  1.0
  Ti  Ti1381  1  0.92003388  0.38180907  0.46742115  1.0
  Ti  Ti1382  1  0.92003388  0.52466621  0.46742115  1.0
  Ti  Ti1383  1  0.92003388  0.66752336  0.46742115  1.0
  Ti  Ti1384  1  0.92003388  0.81038050  0.46742115  1.0
  Ti  Ti1385  1  0.92003388  0.95323764  0.46742115  1.0
  Ti  Ti1386  1  0.09992806  0.06888390  0.37218306  1.0
  Ti  Ti1387  1  0.09992806  0.21174104  0.37218306  1.0
  Ti  Ti1388  1  0.09992806  0.35459819  0.37218306  1.0
  Ti  Ti1389  1  0.09992806  0.49745533  0.37218306  1.0
  Ti  Ti1390  1  0.09992806  0.64031247  0.37218306  1.0
  Ti  Ti1391  1  0.09992806  0.78316961  0.37218306  1.0
  Ti  Ti1392  1  0.09992806  0.92602676  0.37218306  1.0
  Ti  Ti1393  1  0.21103917  0.06888390  0.37218306  1.0
  Ti  Ti1394  1  0.21103917  0.21174104  0.37218306  1.0
  Ti  Ti1395  1  0.21103917  0.35459819  0.37218306  1.0
  Ti  Ti1396  1  0.21103917  0.49745533  0.37218306  1.0
  Ti  Ti1397  1  0.21103917  0.64031247  0.37218306  1.0
  Ti  Ti1398  1  0.21103917  0.78316961  0.37218306  1.0
  Ti  Ti1399  1  0.21103917  0.92602676  0.37218306  1.0
  Ti  Ti1400  1  0.32215029  0.06888390  0.37218306  1.0
  Ti  Ti1401  1  0.32215029  0.21174104  0.37218306  1.0
  Ti  Ti1402  1  0.32215029  0.35459819  0.37218306  1.0
  Ti  Ti1403  1  0.32215029  0.49745533  0.37218306  1.0
  Ti  Ti1404  1  0.32215029  0.64031247  0.37218306  1.0
  Ti  Ti1405  1  0.32215029  0.78316961  0.37218306  1.0
  Ti  Ti1406  1  0.32215029  0.92602676  0.37218306  1.0
  Ti  Ti1407  1  0.43326140  0.06888390  0.37218306  1.0
  Ti  Ti1408  1  0.43326140  0.21174104  0.37218306  1.0
  Ti  Ti1409  1  0.43326140  0.35459819  0.37218306  1.0
  Ti  Ti1410  1  0.43326140  0.49745533  0.37218306  1.0
  Ti  Ti1411  1  0.43326140  0.64031247  0.37218306  1.0
  Ti  Ti1412  1  0.43326140  0.78316961  0.37218306  1.0
  Ti  Ti1413  1  0.43326140  0.92602676  0.37218306  1.0
  Ti  Ti1414  1  0.54437251  0.06888390  0.37218306  1.0
  Ti  Ti1415  1  0.54437251  0.21174104  0.37218306  1.0
  Ti  Ti1416  1  0.54437251  0.35459819  0.37218306  1.0
  Ti  Ti1417  1  0.54437251  0.49745533  0.37218306  1.0
  Ti  Ti1418  1  0.54437251  0.64031247  0.37218306  1.0
  Ti  Ti1419  1  0.54437251  0.78316961  0.37218306  1.0
  Ti  Ti1420  1  0.54437251  0.92602676  0.37218306  1.0
  Ti  Ti1421  1  0.65548362  0.06888390  0.37218306  1.0
  Ti  Ti1422  1  0.65548362  0.21174104  0.37218306  1.0
  Ti  Ti1423  1  0.65548362  0.35459819  0.37218306  1.0
  Ti  Ti1424  1  0.65548362  0.49745533  0.37218306  1.0
  Ti  Ti1425  1  0.65548362  0.64031247  0.37218306  1.0
  Ti  Ti1426  1  0.65548362  0.78316961  0.37218306  1.0
  Ti  Ti1427  1  0.65548362  0.92602676  0.37218306  1.0
  Ti  Ti1428  1  0.76659473  0.06888390  0.37218306  1.0
  Ti  Ti1429  1  0.76659473  0.21174104  0.37218306  1.0
  Ti  Ti1430  1  0.76659473  0.35459819  0.37218306  1.0
  Ti  Ti1431  1  0.76659473  0.49745533  0.37218306  1.0
  Ti  Ti1432  1  0.76659473  0.64031247  0.37218306  1.0
  Ti  Ti1433  1  0.76659473  0.78316961  0.37218306  1.0
  Ti  Ti1434  1  0.76659473  0.92602676  0.37218306  1.0
  Ti  Ti1435  1  0.87770584  0.06888390  0.37218306  1.0
  Ti  Ti1436  1  0.87770584  0.21174104  0.37218306  1.0
  Ti  Ti1437  1  0.87770584  0.35459819  0.37218306  1.0
  Ti  Ti1438  1  0.87770584  0.49745533  0.37218306  1.0
  Ti  Ti1439  1  0.87770584  0.64031247  0.37218306  1.0
  Ti  Ti1440  1  0.87770584  0.78316961  0.37218306  1.0
  Ti  Ti1441  1  0.87770584  0.92602676  0.37218306  1.0
  Ti  Ti1442  1  0.98881695  0.06888390  0.37218306  1.0
  Ti  Ti1443  1  0.98881695  0.21174104  0.37218306  1.0
  Ti  Ti1444  1  0.98881695  0.35459819  0.37218306  1.0
  Ti  Ti1445  1  0.98881695  0.49745533  0.37218306  1.0
  Ti  Ti1446  1  0.98881695  0.64031247  0.37218306  1.0
  Ti  Ti1447  1  0.98881695  0.78316961  0.37218306  1.0
  Ti  Ti1448  1  0.98881695  0.92602676  0.37218306  1.0
  Ti  Ti1449  1  0.00998097  0.08248934  0.41980210  1.0
  Ti  Ti1450  1  0.00998097  0.22534649  0.41980210  1.0
  Ti  Ti1451  1  0.00998097  0.36820363  0.41980210  1.0
  Ti  Ti1452  1  0.00998097  0.51106077  0.41980210  1.0
  Ti  Ti1453  1  0.00998097  0.65391791  0.41980210  1.0
  Ti  Ti1454  1  0.00998097  0.79677506  0.41980210  1.0
  Ti  Ti1455  1  0.00998097  0.93963220  0.41980210  1.0
  Ti  Ti1456  1  0.12109208  0.08248934  0.41980210  1.0
  Ti  Ti1457  1  0.12109208  0.22534649  0.41980210  1.0
  Ti  Ti1458  1  0.12109208  0.36820363  0.41980210  1.0
  Ti  Ti1459  1  0.12109208  0.51106077  0.41980210  1.0
  Ti  Ti1460  1  0.12109208  0.65391791  0.41980210  1.0
  Ti  Ti1461  1  0.12109208  0.79677506  0.41980210  1.0
  Ti  Ti1462  1  0.12109208  0.93963220  0.41980210  1.0
  Ti  Ti1463  1  0.23220320  0.08248934  0.41980210  1.0
  Ti  Ti1464  1  0.23220320  0.22534649  0.41980210  1.0
  Ti  Ti1465  1  0.23220320  0.36820363  0.41980210  1.0
  Ti  Ti1466  1  0.23220320  0.51106077  0.41980210  1.0
  Ti  Ti1467  1  0.23220320  0.65391791  0.41980210  1.0
  Ti  Ti1468  1  0.23220320  0.79677506  0.41980210  1.0
  Ti  Ti1469  1  0.23220320  0.93963220  0.41980210  1.0
  Ti  Ti1470  1  0.34331431  0.08248934  0.41980210  1.0
  Ti  Ti1471  1  0.34331431  0.22534649  0.41980210  1.0
  Ti  Ti1472  1  0.34331431  0.36820363  0.41980210  1.0
  Ti  Ti1473  1  0.34331431  0.51106077  0.41980210  1.0
  Ti  Ti1474  1  0.34331431  0.65391791  0.41980210  1.0
  Ti  Ti1475  1  0.34331431  0.79677506  0.41980210  1.0
  Ti  Ti1476  1  0.34331431  0.93963220  0.41980210  1.0
  Ti  Ti1477  1  0.45442542  0.08248934  0.41980210  1.0
  Ti  Ti1478  1  0.45442542  0.22534649  0.41980210  1.0
  Ti  Ti1479  1  0.45442542  0.36820363  0.41980210  1.0
  Ti  Ti1480  1  0.45442542  0.51106077  0.41980210  1.0
  Ti  Ti1481  1  0.45442542  0.65391791  0.41980210  1.0
  Ti  Ti1482  1  0.45442542  0.79677506  0.41980210  1.0
  Ti  Ti1483  1  0.45442542  0.93963220  0.41980210  1.0
  Ti  Ti1484  1  0.56553653  0.08248934  0.41980210  1.0
  Ti  Ti1485  1  0.56553653  0.22534649  0.41980210  1.0
  Ti  Ti1486  1  0.56553653  0.36820363  0.41980210  1.0
  Ti  Ti1487  1  0.56553653  0.51106077  0.41980210  1.0
  Ti  Ti1488  1  0.56553653  0.65391791  0.41980210  1.0
  Ti  Ti1489  1  0.56553653  0.79677506  0.41980210  1.0
  Ti  Ti1490  1  0.56553653  0.93963220  0.41980210  1.0
  Ti  Ti1491  1  0.67664764  0.08248934  0.41980210  1.0
  Ti  Ti1492  1  0.67664764  0.22534649  0.41980210  1.0
  Ti  Ti1493  1  0.67664764  0.36820363  0.41980210  1.0
  Ti  Ti1494  1  0.67664764  0.51106077  0.41980210  1.0
  Ti  Ti1495  1  0.67664764  0.65391791  0.41980210  1.0
  Ti  Ti1496  1  0.67664764  0.79677506  0.41980210  1.0
  Ti  Ti1497  1  0.67664764  0.93963220  0.41980210  1.0
  Ti  Ti1498  1  0.78775875  0.08248934  0.41980210  1.0
  Ti  Ti1499  1  0.78775875  0.22534649  0.41980210  1.0
  Ti  Ti1500  1  0.78775875  0.36820363  0.41980210  1.0
  Ti  Ti1501  1  0.78775875  0.51106077  0.41980210  1.0
  Ti  Ti1502  1  0.78775875  0.65391791  0.41980210  1.0
  Ti  Ti1503  1  0.78775875  0.79677506  0.41980210  1.0
  Ti  Ti1504  1  0.78775875  0.93963220  0.41980210  1.0
  Ti  Ti1505  1  0.89886986  0.08248934  0.41980210  1.0
  Ti  Ti1506  1  0.89886986  0.22534649  0.41980210  1.0
  Ti  Ti1507  1  0.89886986  0.36820363  0.41980210  1.0
  Ti  Ti1508  1  0.89886986  0.51106077  0.41980210  1.0
  Ti  Ti1509  1  0.89886986  0.65391791  0.41980210  1.0
  Ti  Ti1510  1  0.89886986  0.79677506  0.41980210  1.0
  Ti  Ti1511  1  0.89886986  0.93963220  0.41980210  1.0
  Ti  Ti1512  1  0.07027754  0.05236045  0.56435098  1.0
  Ti  Ti1513  1  0.07027754  0.19521759  0.56435098  1.0
  Ti  Ti1514  1  0.07027754  0.33807474  0.56435098  1.0
  Ti  Ti1515  1  0.07027754  0.48093188  0.56435098  1.0
  Ti  Ti1516  1  0.07027754  0.62378902  0.56435098  1.0
  Ti  Ti1517  1  0.07027754  0.76664616  0.56435098  1.0
  Ti  Ti1518  1  0.07027754  0.90950331  0.56435098  1.0
  Ti  Ti1519  1  0.18138865  0.05236045  0.56435098  1.0
  Ti  Ti1520  1  0.18138865  0.19521759  0.56435098  1.0
  Ti  Ti1521  1  0.18138865  0.33807474  0.56435098  1.0
  Ti  Ti1522  1  0.18138865  0.48093188  0.56435098  1.0
  Ti  Ti1523  1  0.18138865  0.62378902  0.56435098  1.0
  Ti  Ti1524  1  0.18138865  0.76664616  0.56435098  1.0
  Ti  Ti1525  1  0.18138865  0.90950331  0.56435098  1.0
  Ti  Ti1526  1  0.29249976  0.05236045  0.56435098  1.0
  Ti  Ti1527  1  0.29249976  0.19521759  0.56435098  1.0
  Ti  Ti1528  1  0.29249976  0.33807474  0.56435098  1.0
  Ti  Ti1529  1  0.29249976  0.48093188  0.56435098  1.0
  Ti  Ti1530  1  0.29249976  0.62378902  0.56435098  1.0
  Ti  Ti1531  1  0.29249976  0.76664616  0.56435098  1.0
  Ti  Ti1532  1  0.29249976  0.90950331  0.56435098  1.0
  Ti  Ti1533  1  0.40361087  0.05236045  0.56435098  1.0
  Ti  Ti1534  1  0.40361087  0.19521759  0.56435098  1.0
  Ti  Ti1535  1  0.40361087  0.33807474  0.56435098  1.0
  Ti  Ti1536  1  0.40361087  0.48093188  0.56435098  1.0
  Ti  Ti1537  1  0.40361087  0.62378902  0.56435098  1.0
  Ti  Ti1538  1  0.40361087  0.76664616  0.56435098  1.0
  Ti  Ti1539  1  0.40361087  0.90950331  0.56435098  1.0
  Ti  Ti1540  1  0.51472198  0.05236045  0.56435098  1.0
  Ti  Ti1541  1  0.51472198  0.19521759  0.56435098  1.0
  Ti  Ti1542  1  0.51472198  0.33807474  0.56435098  1.0
  Ti  Ti1543  1  0.51472198  0.48093188  0.56435098  1.0
  Ti  Ti1544  1  0.51472198  0.62378902  0.56435098  1.0
  Ti  Ti1545  1  0.51472198  0.76664616  0.56435098  1.0
  Ti  Ti1546  1  0.51472198  0.90950331  0.56435098  1.0
  Ti  Ti1547  1  0.62583310  0.05236045  0.56435098  1.0
  Ti  Ti1548  1  0.62583310  0.19521759  0.56435098  1.0
  Ti  Ti1549  1  0.62583310  0.33807474  0.56435098  1.0
  Ti  Ti1550  1  0.62583310  0.48093188  0.56435098  1.0
  Ti  Ti1551  1  0.62583310  0.62378902  0.56435098  1.0
  Ti  Ti1552  1  0.62583310  0.76664616  0.56435098  1.0
  Ti  Ti1553  1  0.62583310  0.90950331  0.56435098  1.0
  Ti  Ti1554  1  0.73694421  0.05236045  0.56435098  1.0
  Ti  Ti1555  1  0.73694421  0.19521759  0.56435098  1.0
  Ti  Ti1556  1  0.73694421  0.33807474  0.56435098  1.0
  Ti  Ti1557  1  0.73694421  0.48093188  0.56435098  1.0
  Ti  Ti1558  1  0.73694421  0.62378902  0.56435098  1.0
  Ti  Ti1559  1  0.73694421  0.76664616  0.56435098  1.0
  Ti  Ti1560  1  0.73694421  0.90950331  0.56435098  1.0
  Ti  Ti1561  1  0.84805532  0.05236045  0.56435098  1.0
  Ti  Ti1562  1  0.84805532  0.19521759  0.56435098  1.0
  Ti  Ti1563  1  0.84805532  0.33807474  0.56435098  1.0
  Ti  Ti1564  1  0.84805532  0.48093188  0.56435098  1.0
  Ti  Ti1565  1  0.84805532  0.62378902  0.56435098  1.0
  Ti  Ti1566  1  0.84805532  0.76664616  0.56435098  1.0
  Ti  Ti1567  1  0.84805532  0.90950331  0.56435098  1.0
  Ti  Ti1568  1  0.95916643  0.05236045  0.56435098  1.0
  Ti  Ti1569  1  0.95916643  0.19521759  0.56435098  1.0
  Ti  Ti1570  1  0.95916643  0.33807474  0.56435098  1.0
  Ti  Ti1571  1  0.95916643  0.48093188  0.56435098  1.0
  Ti  Ti1572  1  0.95916643  0.62378902  0.56435098  1.0
  Ti  Ti1573  1  0.95916643  0.76664616  0.56435098  1.0
  Ti  Ti1574  1  0.95916643  0.90950331  0.56435098  1.0
  Ti  Ti1575  1  0.09144156  0.06596589  0.61197003  1.0
  Ti  Ti1576  1  0.09144156  0.20882304  0.61197003  1.0
  Ti  Ti1577  1  0.09144156  0.35168018  0.61197003  1.0
  Ti  Ti1578  1  0.09144156  0.49453732  0.61197003  1.0
  Ti  Ti1579  1  0.09144156  0.63739446  0.61197003  1.0
  Ti  Ti1580  1  0.09144156  0.78025161  0.61197003  1.0
  Ti  Ti1581  1  0.09144156  0.92310875  0.61197003  1.0
  Ti  Ti1582  1  0.20255267  0.06596589  0.61197003  1.0
  Ti  Ti1583  1  0.20255267  0.20882304  0.61197003  1.0
  Ti  Ti1584  1  0.20255267  0.35168018  0.61197003  1.0
  Ti  Ti1585  1  0.20255267  0.49453732  0.61197003  1.0
  Ti  Ti1586  1  0.20255267  0.63739446  0.61197003  1.0
  Ti  Ti1587  1  0.20255267  0.78025161  0.61197003  1.0
  Ti  Ti1588  1  0.20255267  0.92310875  0.61197003  1.0
  Ti  Ti1589  1  0.31366378  0.06596589  0.61197003  1.0
  Ti  Ti1590  1  0.31366378  0.20882304  0.61197003  1.0
  Ti  Ti1591  1  0.31366378  0.35168018  0.61197003  1.0
  Ti  Ti1592  1  0.31366378  0.49453732  0.61197003  1.0
  Ti  Ti1593  1  0.31366378  0.63739446  0.61197003  1.0
  Ti  Ti1594  1  0.31366378  0.78025161  0.61197003  1.0
  Ti  Ti1595  1  0.31366378  0.92310875  0.61197003  1.0
  Ti  Ti1596  1  0.42477489  0.06596589  0.61197003  1.0
  Ti  Ti1597  1  0.42477489  0.20882304  0.61197003  1.0
  Ti  Ti1598  1  0.42477489  0.35168018  0.61197003  1.0
  Ti  Ti1599  1  0.42477489  0.49453732  0.61197003  1.0
  Ti  Ti1600  1  0.42477489  0.63739446  0.61197003  1.0
  Ti  Ti1601  1  0.42477489  0.78025161  0.61197003  1.0
  Ti  Ti1602  1  0.42477489  0.92310875  0.61197003  1.0
  Ti  Ti1603  1  0.53588601  0.06596589  0.61197003  1.0
  Ti  Ti1604  1  0.53588601  0.20882304  0.61197003  1.0
  Ti  Ti1605  1  0.53588601  0.35168018  0.61197003  1.0
  Ti  Ti1606  1  0.53588601  0.49453732  0.61197003  1.0
  Ti  Ti1607  1  0.53588601  0.63739446  0.61197003  1.0
  Ti  Ti1608  1  0.53588601  0.78025161  0.61197003  1.0
  Ti  Ti1609  1  0.53588601  0.92310875  0.61197003  1.0
  Ti  Ti1610  1  0.64699712  0.06596589  0.61197003  1.0
  Ti  Ti1611  1  0.64699712  0.20882304  0.61197003  1.0
  Ti  Ti1612  1  0.64699712  0.35168018  0.61197003  1.0
  Ti  Ti1613  1  0.64699712  0.49453732  0.61197003  1.0
  Ti  Ti1614  1  0.64699712  0.63739446  0.61197003  1.0
  Ti  Ti1615  1  0.64699712  0.78025161  0.61197003  1.0
  Ti  Ti1616  1  0.64699712  0.92310875  0.61197003  1.0
  Ti  Ti1617  1  0.75810823  0.06596589  0.61197003  1.0
  Ti  Ti1618  1  0.75810823  0.20882304  0.61197003  1.0
  Ti  Ti1619  1  0.75810823  0.35168018  0.61197003  1.0
  Ti  Ti1620  1  0.75810823  0.49453732  0.61197003  1.0
  Ti  Ti1621  1  0.75810823  0.63739446  0.61197003  1.0
  Ti  Ti1622  1  0.75810823  0.78025161  0.61197003  1.0
  Ti  Ti1623  1  0.75810823  0.92310875  0.61197003  1.0
  Ti  Ti1624  1  0.86921934  0.06596589  0.61197003  1.0
  Ti  Ti1625  1  0.86921934  0.20882304  0.61197003  1.0
  Ti  Ti1626  1  0.86921934  0.35168018  0.61197003  1.0
  Ti  Ti1627  1  0.86921934  0.49453732  0.61197003  1.0
  Ti  Ti1628  1  0.86921934  0.63739446  0.61197003  1.0
  Ti  Ti1629  1  0.86921934  0.78025161  0.61197003  1.0
  Ti  Ti1630  1  0.86921934  0.92310875  0.61197003  1.0
  Ti  Ti1631  1  0.98033045  0.06596589  0.61197003  1.0
  Ti  Ti1632  1  0.98033045  0.20882304  0.61197003  1.0
  Ti  Ti1633  1  0.98033045  0.35168018  0.61197003  1.0
  Ti  Ti1634  1  0.98033045  0.49453732  0.61197003  1.0
  Ti  Ti1635  1  0.98033045  0.63739446  0.61197003  1.0
  Ti  Ti1636  1  0.98033045  0.78025161  0.61197003  1.0
  Ti  Ti1637  1  0.98033045  0.92310875  0.61197003  1.0
  Ti  Ti1638  1  0.04911352  0.03875501  0.51673193  1.0
  Ti  Ti1639  1  0.04911352  0.18161215  0.51673193  1.0
  Ti  Ti1640  1  0.04911352  0.32446929  0.51673193  1.0
  Ti  Ti1641  1  0.04911352  0.46732644  0.51673193  1.0
  Ti  Ti1642  1  0.04911352  0.61018358  0.51673193  1.0
  Ti  Ti1643  1  0.04911352  0.75304072  0.51673193  1.0
  Ti  Ti1644  1  0.04911352  0.89589787  0.51673193  1.0
  Ti  Ti1645  1  0.16022463  0.03875501  0.51673193  1.0
  Ti  Ti1646  1  0.16022463  0.18161215  0.51673193  1.0
  Ti  Ti1647  1  0.16022463  0.32446929  0.51673193  1.0
  Ti  Ti1648  1  0.16022463  0.46732644  0.51673193  1.0
  Ti  Ti1649  1  0.16022463  0.61018358  0.51673193  1.0
  Ti  Ti1650  1  0.16022463  0.75304072  0.51673193  1.0
  Ti  Ti1651  1  0.16022463  0.89589787  0.51673193  1.0
  Ti  Ti1652  1  0.27133574  0.03875501  0.51673193  1.0
  Ti  Ti1653  1  0.27133574  0.18161215  0.51673193  1.0
  Ti  Ti1654  1  0.27133574  0.32446929  0.51673193  1.0
  Ti  Ti1655  1  0.27133574  0.46732644  0.51673193  1.0
  Ti  Ti1656  1  0.27133574  0.61018358  0.51673193  1.0
  Ti  Ti1657  1  0.27133574  0.75304072  0.51673193  1.0
  Ti  Ti1658  1  0.27133574  0.89589787  0.51673193  1.0
  Ti  Ti1659  1  0.38244685  0.03875501  0.51673193  1.0
  Ti  Ti1660  1  0.38244685  0.18161215  0.51673193  1.0
  Ti  Ti1661  1  0.38244685  0.32446929  0.51673193  1.0
  Ti  Ti1662  1  0.38244685  0.46732644  0.51673193  1.0
  Ti  Ti1663  1  0.38244685  0.61018358  0.51673193  1.0
  Ti  Ti1664  1  0.38244685  0.75304072  0.51673193  1.0
  Ti  Ti1665  1  0.38244685  0.89589787  0.51673193  1.0
  Ti  Ti1666  1  0.49355796  0.03875501  0.51673193  1.0
  Ti  Ti1667  1  0.49355796  0.18161215  0.51673193  1.0
  Ti  Ti1668  1  0.49355796  0.32446929  0.51673193  1.0
  Ti  Ti1669  1  0.49355796  0.46732644  0.51673193  1.0
  Ti  Ti1670  1  0.49355796  0.61018358  0.51673193  1.0
  Ti  Ti1671  1  0.49355796  0.75304072  0.51673193  1.0
  Ti  Ti1672  1  0.49355796  0.89589787  0.51673193  1.0
  Ti  Ti1673  1  0.60466907  0.03875501  0.51673193  1.0
  Ti  Ti1674  1  0.60466907  0.18161215  0.51673193  1.0
  Ti  Ti1675  1  0.60466907  0.32446929  0.51673193  1.0
  Ti  Ti1676  1  0.60466907  0.46732644  0.51673193  1.0
  Ti  Ti1677  1  0.60466907  0.61018358  0.51673193  1.0
  Ti  Ti1678  1  0.60466907  0.75304072  0.51673193  1.0
  Ti  Ti1679  1  0.60466907  0.89589787  0.51673193  1.0
  Ti  Ti1680  1  0.71578019  0.03875501  0.51673193  1.0
  Ti  Ti1681  1  0.71578019  0.18161215  0.51673193  1.0
  Ti  Ti1682  1  0.71578019  0.32446929  0.51673193  1.0
  Ti  Ti1683  1  0.71578019  0.46732644  0.51673193  1.0
  Ti  Ti1684  1  0.71578019  0.61018358  0.51673193  1.0
  Ti  Ti1685  1  0.71578019  0.75304072  0.51673193  1.0
  Ti  Ti1686  1  0.71578019  0.89589787  0.51673193  1.0
  Ti  Ti1687  1  0.82689130  0.03875501  0.51673193  1.0
  Ti  Ti1688  1  0.82689130  0.18161215  0.51673193  1.0
  Ti  Ti1689  1  0.82689130  0.32446929  0.51673193  1.0
  Ti  Ti1690  1  0.82689130  0.46732644  0.51673193  1.0
  Ti  Ti1691  1  0.82689130  0.61018358  0.51673193  1.0
  Ti  Ti1692  1  0.82689130  0.75304072  0.51673193  1.0
  Ti  Ti1693  1  0.82689130  0.89589787  0.51673193  1.0
  Ti  Ti1694  1  0.93800241  0.03875501  0.51673193  1.0
  Ti  Ti1695  1  0.93800241  0.18161215  0.51673193  1.0
  Ti  Ti1696  1  0.93800241  0.32446929  0.51673193  1.0
  Ti  Ti1697  1  0.93800241  0.46732644  0.51673193  1.0
  Ti  Ti1698  1  0.93800241  0.61018358  0.51673193  1.0
  Ti  Ti1699  1  0.93800241  0.75304072  0.51673193  1.0
  Ti  Ti1700  1  0.93800241  0.89589787  0.51673193  1.0
  Ti  Ti1701  1  0.02496055  0.00886404  0.57850616  1.0
  Ti  Ti1702  1  0.02496055  0.15172118  0.57850616  1.0
  Ti  Ti1703  1  0.02496055  0.29457833  0.57850616  1.0
  Ti  Ti1704  1  0.02496055  0.43743547  0.57850616  1.0
  Ti  Ti1705  1  0.02496055  0.58029261  0.57850616  1.0
  Ti  Ti1706  1  0.02496055  0.72314975  0.57850616  1.0
  Ti  Ti1707  1  0.02496055  0.86600690  0.57850616  1.0
  Ti  Ti1708  1  0.13607167  0.00886404  0.57850616  1.0
  Ti  Ti1709  1  0.13607167  0.15172118  0.57850616  1.0
  Ti  Ti1710  1  0.13607167  0.29457833  0.57850616  1.0
  Ti  Ti1711  1  0.13607167  0.43743547  0.57850616  1.0
  Ti  Ti1712  1  0.13607167  0.58029261  0.57850616  1.0
  Ti  Ti1713  1  0.13607167  0.72314975  0.57850616  1.0
  Ti  Ti1714  1  0.13607167  0.86600690  0.57850616  1.0
  Ti  Ti1715  1  0.24718278  0.00886404  0.57850616  1.0
  Ti  Ti1716  1  0.24718278  0.15172118  0.57850616  1.0
  Ti  Ti1717  1  0.24718278  0.29457833  0.57850616  1.0
  Ti  Ti1718  1  0.24718278  0.43743547  0.57850616  1.0
  Ti  Ti1719  1  0.24718278  0.58029261  0.57850616  1.0
  Ti  Ti1720  1  0.24718278  0.72314975  0.57850616  1.0
  Ti  Ti1721  1  0.24718278  0.86600690  0.57850616  1.0
  Ti  Ti1722  1  0.35829389  0.00886404  0.57850616  1.0
  Ti  Ti1723  1  0.35829389  0.15172118  0.57850616  1.0
  Ti  Ti1724  1  0.35829389  0.29457833  0.57850616  1.0
  Ti  Ti1725  1  0.35829389  0.43743547  0.57850616  1.0
  Ti  Ti1726  1  0.35829389  0.58029261  0.57850616  1.0
  Ti  Ti1727  1  0.35829389  0.72314975  0.57850616  1.0
  Ti  Ti1728  1  0.35829389  0.86600690  0.57850616  1.0
  Ti  Ti1729  1  0.46940500  0.00886404  0.57850616  1.0
  Ti  Ti1730  1  0.46940500  0.15172118  0.57850616  1.0
  Ti  Ti1731  1  0.46940500  0.29457833  0.57850616  1.0
  Ti  Ti1732  1  0.46940500  0.43743547  0.57850616  1.0
  Ti  Ti1733  1  0.46940500  0.58029261  0.57850616  1.0
  Ti  Ti1734  1  0.46940500  0.72314975  0.57850616  1.0
  Ti  Ti1735  1  0.46940500  0.86600690  0.57850616  1.0
  Ti  Ti1736  1  0.58051611  0.00886404  0.57850616  1.0
  Ti  Ti1737  1  0.58051611  0.15172118  0.57850616  1.0
  Ti  Ti1738  1  0.58051611  0.29457833  0.57850616  1.0
  Ti  Ti1739  1  0.58051611  0.43743547  0.57850616  1.0
  Ti  Ti1740  1  0.58051611  0.58029261  0.57850616  1.0
  Ti  Ti1741  1  0.58051611  0.72314975  0.57850616  1.0
  Ti  Ti1742  1  0.58051611  0.86600690  0.57850616  1.0
  Ti  Ti1743  1  0.69162722  0.00886404  0.57850616  1.0
  Ti  Ti1744  1  0.69162722  0.15172118  0.57850616  1.0
  Ti  Ti1745  1  0.69162722  0.29457833  0.57850616  1.0
  Ti  Ti1746  1  0.69162722  0.43743547  0.57850616  1.0
  Ti  Ti1747  1  0.69162722  0.58029261  0.57850616  1.0
  Ti  Ti1748  1  0.69162722  0.72314975  0.57850616  1.0
  Ti  Ti1749  1  0.69162722  0.86600690  0.57850616  1.0
  Ti  Ti1750  1  0.80273833  0.00886404  0.57850616  1.0
  Ti  Ti1751  1  0.80273833  0.15172118  0.57850616  1.0
  Ti  Ti1752  1  0.80273833  0.29457833  0.57850616  1.0
  Ti  Ti1753  1  0.80273833  0.43743547  0.57850616  1.0
  Ti  Ti1754  1  0.80273833  0.58029261  0.57850616  1.0
  Ti  Ti1755  1  0.80273833  0.72314975  0.57850616  1.0
  Ti  Ti1756  1  0.80273833  0.86600690  0.57850616  1.0
  Ti  Ti1757  1  0.91384944  0.00886404  0.57850616  1.0
  Ti  Ti1758  1  0.91384944  0.15172118  0.57850616  1.0
  Ti  Ti1759  1  0.91384944  0.29457833  0.57850616  1.0
  Ti  Ti1760  1  0.91384944  0.43743547  0.57850616  1.0
  Ti  Ti1761  1  0.91384944  0.58029261  0.57850616  1.0
  Ti  Ti1762  1  0.91384944  0.72314975  0.57850616  1.0
  Ti  Ti1763  1  0.91384944  0.86600690  0.57850616  1.0
  Ti  Ti1764  1  0.04612458  0.02246948  0.62612521  1.0
  Ti  Ti1765  1  0.04612458  0.16532662  0.62612521  1.0
  Ti  Ti1766  1  0.04612458  0.30818377  0.62612521  1.0
  Ti  Ti1767  1  0.04612458  0.45104091  0.62612521  1.0
  Ti  Ti1768  1  0.04612458  0.59389805  0.62612521  1.0
  Ti  Ti1769  1  0.04612458  0.73675520  0.62612521  1.0
  Ti  Ti1770  1  0.04612458  0.87961234  0.62612521  1.0
  Ti  Ti1771  1  0.15723569  0.02246948  0.62612521  1.0
  Ti  Ti1772  1  0.15723569  0.16532662  0.62612521  1.0
  Ti  Ti1773  1  0.15723569  0.30818377  0.62612521  1.0
  Ti  Ti1774  1  0.15723569  0.45104091  0.62612521  1.0
  Ti  Ti1775  1  0.15723569  0.59389805  0.62612521  1.0
  Ti  Ti1776  1  0.15723569  0.73675520  0.62612521  1.0
  Ti  Ti1777  1  0.15723569  0.87961234  0.62612521  1.0
  Ti  Ti1778  1  0.26834680  0.02246948  0.62612521  1.0
  Ti  Ti1779  1  0.26834680  0.16532662  0.62612521  1.0
  Ti  Ti1780  1  0.26834680  0.30818377  0.62612521  1.0
  Ti  Ti1781  1  0.26834680  0.45104091  0.62612521  1.0
  Ti  Ti1782  1  0.26834680  0.59389805  0.62612521  1.0
  Ti  Ti1783  1  0.26834680  0.73675520  0.62612521  1.0
  Ti  Ti1784  1  0.26834680  0.87961234  0.62612521  1.0
  Ti  Ti1785  1  0.37945791  0.02246948  0.62612521  1.0
  Ti  Ti1786  1  0.37945791  0.16532662  0.62612521  1.0
  Ti  Ti1787  1  0.37945791  0.30818377  0.62612521  1.0
  Ti  Ti1788  1  0.37945791  0.45104091  0.62612521  1.0
  Ti  Ti1789  1  0.37945791  0.59389805  0.62612521  1.0
  Ti  Ti1790  1  0.37945791  0.73675520  0.62612521  1.0
  Ti  Ti1791  1  0.37945791  0.87961234  0.62612521  1.0
  Ti  Ti1792  1  0.49056902  0.02246948  0.62612521  1.0
  Ti  Ti1793  1  0.49056902  0.16532662  0.62612521  1.0
  Ti  Ti1794  1  0.49056902  0.30818377  0.62612521  1.0
  Ti  Ti1795  1  0.49056902  0.45104091  0.62612521  1.0
  Ti  Ti1796  1  0.49056902  0.59389805  0.62612521  1.0
  Ti  Ti1797  1  0.49056902  0.73675520  0.62612521  1.0
  Ti  Ti1798  1  0.49056902  0.87961234  0.62612521  1.0
  Ti  Ti1799  1  0.60168013  0.02246948  0.62612521  1.0
  Ti  Ti1800  1  0.60168013  0.16532662  0.62612521  1.0
  Ti  Ti1801  1  0.60168013  0.30818377  0.62612521  1.0
  Ti  Ti1802  1  0.60168013  0.45104091  0.62612521  1.0
  Ti  Ti1803  1  0.60168013  0.59389805  0.62612521  1.0
  Ti  Ti1804  1  0.60168013  0.73675520  0.62612521  1.0
  Ti  Ti1805  1  0.60168013  0.87961234  0.62612521  1.0
  Ti  Ti1806  1  0.71279124  0.02246948  0.62612521  1.0
  Ti  Ti1807  1  0.71279124  0.16532662  0.62612521  1.0
  Ti  Ti1808  1  0.71279124  0.30818377  0.62612521  1.0
  Ti  Ti1809  1  0.71279124  0.45104091  0.62612521  1.0
  Ti  Ti1810  1  0.71279124  0.59389805  0.62612521  1.0
  Ti  Ti1811  1  0.71279124  0.73675520  0.62612521  1.0
  Ti  Ti1812  1  0.71279124  0.87961234  0.62612521  1.0
  Ti  Ti1813  1  0.82390235  0.02246948  0.62612521  1.0
  Ti  Ti1814  1  0.82390235  0.16532662  0.62612521  1.0
  Ti  Ti1815  1  0.82390235  0.30818377  0.62612521  1.0
  Ti  Ti1816  1  0.82390235  0.45104091  0.62612521  1.0
  Ti  Ti1817  1  0.82390235  0.59389805  0.62612521  1.0
  Ti  Ti1818  1  0.82390235  0.73675520  0.62612521  1.0
  Ti  Ti1819  1  0.82390235  0.87961234  0.62612521  1.0
  Ti  Ti1820  1  0.93501346  0.02246948  0.62612521  1.0
  Ti  Ti1821  1  0.93501346  0.16532662  0.62612521  1.0
  Ti  Ti1822  1  0.93501346  0.30818377  0.62612521  1.0
  Ti  Ti1823  1  0.93501346  0.45104091  0.62612521  1.0
  Ti  Ti1824  1  0.93501346  0.59389805  0.62612521  1.0
  Ti  Ti1825  1  0.93501346  0.73675520  0.62612521  1.0
  Ti  Ti1826  1  0.93501346  0.87961234  0.62612521  1.0
  Ti  Ti1827  1  0.00379653  0.13811574  0.53088712  1.0
  Ti  Ti1828  1  0.00379653  0.28097288  0.53088712  1.0
  Ti  Ti1829  1  0.00379653  0.42383003  0.53088712  1.0
  Ti  Ti1830  1  0.00379653  0.56668717  0.53088712  1.0
  Ti  Ti1831  1  0.00379653  0.70954431  0.53088712  1.0
  Ti  Ti1832  1  0.00379653  0.85240145  0.53088712  1.0
  Ti  Ti1833  1  0.00379653  0.99525860  0.53088712  1.0
  Ti  Ti1834  1  0.11490764  0.13811574  0.53088712  1.0
  Ti  Ti1835  1  0.11490764  0.28097288  0.53088712  1.0
  Ti  Ti1836  1  0.11490764  0.42383003  0.53088712  1.0
  Ti  Ti1837  1  0.11490764  0.56668717  0.53088712  1.0
  Ti  Ti1838  1  0.11490764  0.70954431  0.53088712  1.0
  Ti  Ti1839  1  0.11490764  0.85240145  0.53088712  1.0
  Ti  Ti1840  1  0.11490764  0.99525860  0.53088712  1.0
  Ti  Ti1841  1  0.22601876  0.13811574  0.53088712  1.0
  Ti  Ti1842  1  0.22601876  0.28097288  0.53088712  1.0
  Ti  Ti1843  1  0.22601876  0.42383003  0.53088712  1.0
  Ti  Ti1844  1  0.22601876  0.56668717  0.53088712  1.0
  Ti  Ti1845  1  0.22601876  0.70954431  0.53088712  1.0
  Ti  Ti1846  1  0.22601876  0.85240145  0.53088712  1.0
  Ti  Ti1847  1  0.22601876  0.99525860  0.53088712  1.0
  Ti  Ti1848  1  0.33712987  0.13811574  0.53088712  1.0
  Ti  Ti1849  1  0.33712987  0.28097288  0.53088712  1.0
  Ti  Ti1850  1  0.33712987  0.42383003  0.53088712  1.0
  Ti  Ti1851  1  0.33712987  0.56668717  0.53088712  1.0
  Ti  Ti1852  1  0.33712987  0.70954431  0.53088712  1.0
  Ti  Ti1853  1  0.33712987  0.85240145  0.53088712  1.0
  Ti  Ti1854  1  0.33712987  0.99525860  0.53088712  1.0
  Ti  Ti1855  1  0.44824098  0.13811574  0.53088712  1.0
  Ti  Ti1856  1  0.44824098  0.28097288  0.53088712  1.0
  Ti  Ti1857  1  0.44824098  0.42383003  0.53088712  1.0
  Ti  Ti1858  1  0.44824098  0.56668717  0.53088712  1.0
  Ti  Ti1859  1  0.44824098  0.70954431  0.53088712  1.0
  Ti  Ti1860  1  0.44824098  0.85240145  0.53088712  1.0
  Ti  Ti1861  1  0.44824098  0.99525860  0.53088712  1.0
  Ti  Ti1862  1  0.55935209  0.13811574  0.53088712  1.0
  Ti  Ti1863  1  0.55935209  0.28097288  0.53088712  1.0
  Ti  Ti1864  1  0.55935209  0.42383003  0.53088712  1.0
  Ti  Ti1865  1  0.55935209  0.56668717  0.53088712  1.0
  Ti  Ti1866  1  0.55935209  0.70954431  0.53088712  1.0
  Ti  Ti1867  1  0.55935209  0.85240145  0.53088712  1.0
  Ti  Ti1868  1  0.55935209  0.99525860  0.53088712  1.0
  Ti  Ti1869  1  0.67046320  0.13811574  0.53088712  1.0
  Ti  Ti1870  1  0.67046320  0.28097288  0.53088712  1.0
  Ti  Ti1871  1  0.67046320  0.42383003  0.53088712  1.0
  Ti  Ti1872  1  0.67046320  0.56668717  0.53088712  1.0
  Ti  Ti1873  1  0.67046320  0.70954431  0.53088712  1.0
  Ti  Ti1874  1  0.67046320  0.85240145  0.53088712  1.0
  Ti  Ti1875  1  0.67046320  0.99525860  0.53088712  1.0
  Ti  Ti1876  1  0.78157431  0.13811574  0.53088712  1.0
  Ti  Ti1877  1  0.78157431  0.28097288  0.53088712  1.0
  Ti  Ti1878  1  0.78157431  0.42383003  0.53088712  1.0
  Ti  Ti1879  1  0.78157431  0.56668717  0.53088712  1.0
  Ti  Ti1880  1  0.78157431  0.70954431  0.53088712  1.0
  Ti  Ti1881  1  0.78157431  0.85240145  0.53088712  1.0
  Ti  Ti1882  1  0.78157431  0.99525860  0.53088712  1.0
  Ti  Ti1883  1  0.89268542  0.13811574  0.53088712  1.0
  Ti  Ti1884  1  0.89268542  0.28097288  0.53088712  1.0
  Ti  Ti1885  1  0.89268542  0.42383003  0.53088712  1.0
  Ti  Ti1886  1  0.89268542  0.56668717  0.53088712  1.0
  Ti  Ti1887  1  0.89268542  0.70954431  0.53088712  1.0
  Ti  Ti1888  1  0.89268542  0.85240145  0.53088712  1.0
  Ti  Ti1889  1  0.89268542  0.99525860  0.53088712  1.0
  Ti  Ti1890  1  0.00060104  0.06717052  0.53257885  1.0
  Ti  Ti1891  1  0.00060104  0.21002766  0.53257885  1.0
  Ti  Ti1892  1  0.00060104  0.35288481  0.53257885  1.0
  Ti  Ti1893  1  0.00060104  0.49574195  0.53257885  1.0
  Ti  Ti1894  1  0.00060104  0.63859909  0.53257885  1.0
  Ti  Ti1895  1  0.00060104  0.78145624  0.53257885  1.0
  Ti  Ti1896  1  0.00060104  0.92431338  0.53257885  1.0
  Ti  Ti1897  1  0.11171215  0.06717052  0.53257885  1.0
  Ti  Ti1898  1  0.11171215  0.21002766  0.53257885  1.0
  Ti  Ti1899  1  0.11171215  0.35288481  0.53257885  1.0
  Ti  Ti1900  1  0.11171215  0.49574195  0.53257885  1.0
  Ti  Ti1901  1  0.11171215  0.63859909  0.53257885  1.0
  Ti  Ti1902  1  0.11171215  0.78145624  0.53257885  1.0
  Ti  Ti1903  1  0.11171215  0.92431338  0.53257885  1.0
  Ti  Ti1904  1  0.22282326  0.06717052  0.53257885  1.0
  Ti  Ti1905  1  0.22282326  0.21002766  0.53257885  1.0
  Ti  Ti1906  1  0.22282326  0.35288481  0.53257885  1.0
  Ti  Ti1907  1  0.22282326  0.49574195  0.53257885  1.0
  Ti  Ti1908  1  0.22282326  0.63859909  0.53257885  1.0
  Ti  Ti1909  1  0.22282326  0.78145624  0.53257885  1.0
  Ti  Ti1910  1  0.22282326  0.92431338  0.53257885  1.0
  Ti  Ti1911  1  0.33393437  0.06717052  0.53257885  1.0
  Ti  Ti1912  1  0.33393437  0.21002766  0.53257885  1.0
  Ti  Ti1913  1  0.33393437  0.35288481  0.53257885  1.0
  Ti  Ti1914  1  0.33393437  0.49574195  0.53257885  1.0
  Ti  Ti1915  1  0.33393437  0.63859909  0.53257885  1.0
  Ti  Ti1916  1  0.33393437  0.78145624  0.53257885  1.0
  Ti  Ti1917  1  0.33393437  0.92431338  0.53257885  1.0
  Ti  Ti1918  1  0.44504548  0.06717052  0.53257885  1.0
  Ti  Ti1919  1  0.44504548  0.21002766  0.53257885  1.0
  Ti  Ti1920  1  0.44504548  0.35288481  0.53257885  1.0
  Ti  Ti1921  1  0.44504548  0.49574195  0.53257885  1.0
  Ti  Ti1922  1  0.44504548  0.63859909  0.53257885  1.0
  Ti  Ti1923  1  0.44504548  0.78145624  0.53257885  1.0
  Ti  Ti1924  1  0.44504548  0.92431338  0.53257885  1.0
  Ti  Ti1925  1  0.55615659  0.06717052  0.53257885  1.0
  Ti  Ti1926  1  0.55615659  0.21002766  0.53257885  1.0
  Ti  Ti1927  1  0.55615659  0.35288481  0.53257885  1.0
  Ti  Ti1928  1  0.55615659  0.49574195  0.53257885  1.0
  Ti  Ti1929  1  0.55615659  0.63859909  0.53257885  1.0
  Ti  Ti1930  1  0.55615659  0.78145624  0.53257885  1.0
  Ti  Ti1931  1  0.55615659  0.92431338  0.53257885  1.0
  Ti  Ti1932  1  0.66726770  0.06717052  0.53257885  1.0
  Ti  Ti1933  1  0.66726770  0.21002766  0.53257885  1.0
  Ti  Ti1934  1  0.66726770  0.35288481  0.53257885  1.0
  Ti  Ti1935  1  0.66726770  0.49574195  0.53257885  1.0
  Ti  Ti1936  1  0.66726770  0.63859909  0.53257885  1.0
  Ti  Ti1937  1  0.66726770  0.78145624  0.53257885  1.0
  Ti  Ti1938  1  0.66726770  0.92431338  0.53257885  1.0
  Ti  Ti1939  1  0.77837882  0.06717052  0.53257885  1.0
  Ti  Ti1940  1  0.77837882  0.21002766  0.53257885  1.0
  Ti  Ti1941  1  0.77837882  0.35288481  0.53257885  1.0
  Ti  Ti1942  1  0.77837882  0.49574195  0.53257885  1.0
  Ti  Ti1943  1  0.77837882  0.63859909  0.53257885  1.0
  Ti  Ti1944  1  0.77837882  0.78145624  0.53257885  1.0
  Ti  Ti1945  1  0.77837882  0.92431338  0.53257885  1.0
  Ti  Ti1946  1  0.88948993  0.06717052  0.53257885  1.0
  Ti  Ti1947  1  0.88948993  0.21002766  0.53257885  1.0
  Ti  Ti1948  1  0.88948993  0.35288481  0.53257885  1.0
  Ti  Ti1949  1  0.88948993  0.49574195  0.53257885  1.0
  Ti  Ti1950  1  0.88948993  0.63859909  0.53257885  1.0
  Ti  Ti1951  1  0.88948993  0.78145624  0.53257885  1.0
  Ti  Ti1952  1  0.88948993  0.92431338  0.53257885  1.0
  Ti  Ti1953  1  0.02176506  0.08077596  0.58019790  1.0
  Ti  Ti1954  1  0.02176506  0.22363311  0.58019790  1.0
  Ti  Ti1955  1  0.02176506  0.36649025  0.58019790  1.0
  Ti  Ti1956  1  0.02176506  0.50934739  0.58019790  1.0
  Ti  Ti1957  1  0.02176506  0.65220453  0.58019790  1.0
  Ti  Ti1958  1  0.02176506  0.79506168  0.58019790  1.0
  Ti  Ti1959  1  0.02176506  0.93791882  0.58019790  1.0
  Ti  Ti1960  1  0.13287617  0.08077596  0.58019790  1.0
  Ti  Ti1961  1  0.13287617  0.22363311  0.58019790  1.0
  Ti  Ti1962  1  0.13287617  0.36649025  0.58019790  1.0
  Ti  Ti1963  1  0.13287617  0.50934739  0.58019790  1.0
  Ti  Ti1964  1  0.13287617  0.65220453  0.58019790  1.0
  Ti  Ti1965  1  0.13287617  0.79506168  0.58019790  1.0
  Ti  Ti1966  1  0.13287617  0.93791882  0.58019790  1.0
  Ti  Ti1967  1  0.24398728  0.08077596  0.58019790  1.0
  Ti  Ti1968  1  0.24398728  0.22363311  0.58019790  1.0
  Ti  Ti1969  1  0.24398728  0.36649025  0.58019790  1.0
  Ti  Ti1970  1  0.24398728  0.50934739  0.58019790  1.0
  Ti  Ti1971  1  0.24398728  0.65220453  0.58019790  1.0
  Ti  Ti1972  1  0.24398728  0.79506168  0.58019790  1.0
  Ti  Ti1973  1  0.24398728  0.93791882  0.58019790  1.0
  Ti  Ti1974  1  0.35509839  0.08077596  0.58019790  1.0
  Ti  Ti1975  1  0.35509839  0.22363311  0.58019790  1.0
  Ti  Ti1976  1  0.35509839  0.36649025  0.58019790  1.0
  Ti  Ti1977  1  0.35509839  0.50934739  0.58019790  1.0
  Ti  Ti1978  1  0.35509839  0.65220453  0.58019790  1.0
  Ti  Ti1979  1  0.35509839  0.79506168  0.58019790  1.0
  Ti  Ti1980  1  0.35509839  0.93791882  0.58019790  1.0
  Ti  Ti1981  1  0.46620950  0.08077596  0.58019790  1.0
  Ti  Ti1982  1  0.46620950  0.22363311  0.58019790  1.0
  Ti  Ti1983  1  0.46620950  0.36649025  0.58019790  1.0
  Ti  Ti1984  1  0.46620950  0.50934739  0.58019790  1.0
  Ti  Ti1985  1  0.46620950  0.65220453  0.58019790  1.0
  Ti  Ti1986  1  0.46620950  0.79506168  0.58019790  1.0
  Ti  Ti1987  1  0.46620950  0.93791882  0.58019790  1.0
  Ti  Ti1988  1  0.57732061  0.08077596  0.58019790  1.0
  Ti  Ti1989  1  0.57732061  0.22363311  0.58019790  1.0
  Ti  Ti1990  1  0.57732061  0.36649025  0.58019790  1.0
  Ti  Ti1991  1  0.57732061  0.50934739  0.58019790  1.0
  Ti  Ti1992  1  0.57732061  0.65220453  0.58019790  1.0
  Ti  Ti1993  1  0.57732061  0.79506168  0.58019790  1.0
  Ti  Ti1994  1  0.57732061  0.93791882  0.58019790  1.0
  Ti  Ti1995  1  0.68843173  0.08077596  0.58019790  1.0
  Ti  Ti1996  1  0.68843173  0.22363311  0.58019790  1.0
  Ti  Ti1997  1  0.68843173  0.36649025  0.58019790  1.0
  Ti  Ti1998  1  0.68843173  0.50934739  0.58019790  1.0
  Ti  Ti1999  1  0.68843173  0.65220453  0.58019790  1.0
  Ti  Ti2000  1  0.68843173  0.79506168  0.58019790  1.0
  Ti  Ti2001  1  0.68843173  0.93791882  0.58019790  1.0
  Ti  Ti2002  1  0.79954284  0.08077596  0.58019790  1.0
  Ti  Ti2003  1  0.79954284  0.22363311  0.58019790  1.0
  Ti  Ti2004  1  0.79954284  0.36649025  0.58019790  1.0
  Ti  Ti2005  1  0.79954284  0.50934739  0.58019790  1.0
  Ti  Ti2006  1  0.79954284  0.65220453  0.58019790  1.0
  Ti  Ti2007  1  0.79954284  0.79506168  0.58019790  1.0
  Ti  Ti2008  1  0.79954284  0.93791882  0.58019790  1.0
  Ti  Ti2009  1  0.91065395  0.08077596  0.58019790  1.0
  Ti  Ti2010  1  0.91065395  0.22363311  0.58019790  1.0
  Ti  Ti2011  1  0.91065395  0.36649025  0.58019790  1.0
  Ti  Ti2012  1  0.91065395  0.50934739  0.58019790  1.0
  Ti  Ti2013  1  0.91065395  0.65220453  0.58019790  1.0
  Ti  Ti2014  1  0.91065395  0.79506168  0.58019790  1.0
  Ti  Ti2015  1  0.91065395  0.93791882  0.58019790  1.0
  Ti  Ti2016  1  0.04292908  0.09438141  0.62781694  1.0
  Ti  Ti2017  1  0.04292908  0.23723855  0.62781694  1.0
  Ti  Ti2018  1  0.04292908  0.38009569  0.62781694  1.0
  Ti  Ti2019  1  0.04292908  0.52295283  0.62781694  1.0
  Ti  Ti2020  1  0.04292908  0.66580998  0.62781694  1.0
  Ti  Ti2021  1  0.04292908  0.80866712  0.62781694  1.0
  Ti  Ti2022  1  0.04292908  0.95152426  0.62781694  1.0
  Ti  Ti2023  1  0.15404019  0.09438141  0.62781694  1.0
  Ti  Ti2024  1  0.15404019  0.23723855  0.62781694  1.0
  Ti  Ti2025  1  0.15404019  0.38009569  0.62781694  1.0
  Ti  Ti2026  1  0.15404019  0.52295283  0.62781694  1.0
  Ti  Ti2027  1  0.15404019  0.66580998  0.62781694  1.0
  Ti  Ti2028  1  0.15404019  0.80866712  0.62781694  1.0
  Ti  Ti2029  1  0.15404019  0.95152426  0.62781694  1.0
  Ti  Ti2030  1  0.26515130  0.09438141  0.62781694  1.0
  Ti  Ti2031  1  0.26515130  0.23723855  0.62781694  1.0
  Ti  Ti2032  1  0.26515130  0.38009569  0.62781694  1.0
  Ti  Ti2033  1  0.26515130  0.52295283  0.62781694  1.0
  Ti  Ti2034  1  0.26515130  0.66580998  0.62781694  1.0
  Ti  Ti2035  1  0.26515130  0.80866712  0.62781694  1.0
  Ti  Ti2036  1  0.26515130  0.95152426  0.62781694  1.0
  Ti  Ti2037  1  0.37626241  0.09438141  0.62781694  1.0
  Ti  Ti2038  1  0.37626241  0.23723855  0.62781694  1.0
  Ti  Ti2039  1  0.37626241  0.38009569  0.62781694  1.0
  Ti  Ti2040  1  0.37626241  0.52295283  0.62781694  1.0
  Ti  Ti2041  1  0.37626241  0.66580998  0.62781694  1.0
  Ti  Ti2042  1  0.37626241  0.80866712  0.62781694  1.0
  Ti  Ti2043  1  0.37626241  0.95152426  0.62781694  1.0
  Ti  Ti2044  1  0.48737352  0.09438141  0.62781694  1.0
  Ti  Ti2045  1  0.48737352  0.23723855  0.62781694  1.0
  Ti  Ti2046  1  0.48737352  0.38009569  0.62781694  1.0
  Ti  Ti2047  1  0.48737352  0.52295283  0.62781694  1.0
  Ti  Ti2048  1  0.48737352  0.66580998  0.62781694  1.0
  Ti  Ti2049  1  0.48737352  0.80866712  0.62781694  1.0
  Ti  Ti2050  1  0.48737352  0.95152426  0.62781694  1.0
  Ti  Ti2051  1  0.59848464  0.09438141  0.62781694  1.0
  Ti  Ti2052  1  0.59848464  0.23723855  0.62781694  1.0
  Ti  Ti2053  1  0.59848464  0.38009569  0.62781694  1.0
  Ti  Ti2054  1  0.59848464  0.52295283  0.62781694  1.0
  Ti  Ti2055  1  0.59848464  0.66580998  0.62781694  1.0
  Ti  Ti2056  1  0.59848464  0.80866712  0.62781694  1.0
  Ti  Ti2057  1  0.59848464  0.95152426  0.62781694  1.0
  Ti  Ti2058  1  0.70959575  0.09438141  0.62781694  1.0
  Ti  Ti2059  1  0.70959575  0.23723855  0.62781694  1.0
  Ti  Ti2060  1  0.70959575  0.38009569  0.62781694  1.0
  Ti  Ti2061  1  0.70959575  0.52295283  0.62781694  1.0
  Ti  Ti2062  1  0.70959575  0.66580998  0.62781694  1.0
  Ti  Ti2063  1  0.70959575  0.80866712  0.62781694  1.0
  Ti  Ti2064  1  0.70959575  0.95152426  0.62781694  1.0
  Ti  Ti2065  1  0.82070686  0.09438141  0.62781694  1.0
  Ti  Ti2066  1  0.82070686  0.23723855  0.62781694  1.0
  Ti  Ti2067  1  0.82070686  0.38009569  0.62781694  1.0
  Ti  Ti2068  1  0.82070686  0.52295283  0.62781694  1.0
  Ti  Ti2069  1  0.82070686  0.66580998  0.62781694  1.0
  Ti  Ti2070  1  0.82070686  0.80866712  0.62781694  1.0
  Ti  Ti2071  1  0.82070686  0.95152426  0.62781694  1.0
  Ti  Ti2072  1  0.93181797  0.09438141  0.62781694  1.0
  Ti  Ti2073  1  0.93181797  0.23723855  0.62781694  1.0
  Ti  Ti2074  1  0.93181797  0.38009569  0.62781694  1.0
  Ti  Ti2075  1  0.93181797  0.52295283  0.62781694  1.0
  Ti  Ti2076  1  0.93181797  0.66580998  0.62781694  1.0
  Ti  Ti2077  1  0.93181797  0.80866712  0.62781694  1.0
  Ti  Ti2078  1  0.93181797  0.95152426  0.62781694  1.0
  Ti  Ti2079  1  0.09463706  0.13691111  0.61027829  1.0
  Ti  Ti2080  1  0.09463706  0.27976825  0.61027829  1.0
  Ti  Ti2081  1  0.09463706  0.42262540  0.61027829  1.0
  Ti  Ti2082  1  0.09463706  0.56548254  0.61027829  1.0
  Ti  Ti2083  1  0.09463706  0.70833968  0.61027829  1.0
  Ti  Ti2084  1  0.09463706  0.85119683  0.61027829  1.0
  Ti  Ti2085  1  0.09463706  0.99405397  0.61027829  1.0
  Ti  Ti2086  1  0.20574817  0.13691111  0.61027829  1.0
  Ti  Ti2087  1  0.20574817  0.27976825  0.61027829  1.0
  Ti  Ti2088  1  0.20574817  0.42262540  0.61027829  1.0
  Ti  Ti2089  1  0.20574817  0.56548254  0.61027829  1.0
  Ti  Ti2090  1  0.20574817  0.70833968  0.61027829  1.0
  Ti  Ti2091  1  0.20574817  0.85119683  0.61027829  1.0
  Ti  Ti2092  1  0.20574817  0.99405397  0.61027829  1.0
  Ti  Ti2093  1  0.31685928  0.13691111  0.61027829  1.0
  Ti  Ti2094  1  0.31685928  0.27976825  0.61027829  1.0
  Ti  Ti2095  1  0.31685928  0.42262540  0.61027829  1.0
  Ti  Ti2096  1  0.31685928  0.56548254  0.61027829  1.0
  Ti  Ti2097  1  0.31685928  0.70833968  0.61027829  1.0
  Ti  Ti2098  1  0.31685928  0.85119683  0.61027829  1.0
  Ti  Ti2099  1  0.31685928  0.99405397  0.61027829  1.0
  Ti  Ti2100  1  0.42797039  0.13691111  0.61027829  1.0
  Ti  Ti2101  1  0.42797039  0.27976825  0.61027829  1.0
  Ti  Ti2102  1  0.42797039  0.42262540  0.61027829  1.0
  Ti  Ti2103  1  0.42797039  0.56548254  0.61027829  1.0
  Ti  Ti2104  1  0.42797039  0.70833968  0.61027829  1.0
  Ti  Ti2105  1  0.42797039  0.85119683  0.61027829  1.0
  Ti  Ti2106  1  0.42797039  0.99405397  0.61027829  1.0
  Ti  Ti2107  1  0.53908150  0.13691111  0.61027829  1.0
  Ti  Ti2108  1  0.53908150  0.27976825  0.61027829  1.0
  Ti  Ti2109  1  0.53908150  0.42262540  0.61027829  1.0
  Ti  Ti2110  1  0.53908150  0.56548254  0.61027829  1.0
  Ti  Ti2111  1  0.53908150  0.70833968  0.61027829  1.0
  Ti  Ti2112  1  0.53908150  0.85119683  0.61027829  1.0
  Ti  Ti2113  1  0.53908150  0.99405397  0.61027829  1.0
  Ti  Ti2114  1  0.65019261  0.13691111  0.61027829  1.0
  Ti  Ti2115  1  0.65019261  0.27976825  0.61027829  1.0
  Ti  Ti2116  1  0.65019261  0.42262540  0.61027829  1.0
  Ti  Ti2117  1  0.65019261  0.56548254  0.61027829  1.0
  Ti  Ti2118  1  0.65019261  0.70833968  0.61027829  1.0
  Ti  Ti2119  1  0.65019261  0.85119683  0.61027829  1.0
  Ti  Ti2120  1  0.65019261  0.99405397  0.61027829  1.0
  Ti  Ti2121  1  0.76130372  0.13691111  0.61027829  1.0
  Ti  Ti2122  1  0.76130372  0.27976825  0.61027829  1.0
  Ti  Ti2123  1  0.76130372  0.42262540  0.61027829  1.0
  Ti  Ti2124  1  0.76130372  0.56548254  0.61027829  1.0
  Ti  Ti2125  1  0.76130372  0.70833968  0.61027829  1.0
  Ti  Ti2126  1  0.76130372  0.85119683  0.61027829  1.0
  Ti  Ti2127  1  0.76130372  0.99405397  0.61027829  1.0
  Ti  Ti2128  1  0.87241484  0.13691111  0.61027829  1.0
  Ti  Ti2129  1  0.87241484  0.27976825  0.61027829  1.0
  Ti  Ti2130  1  0.87241484  0.42262540  0.61027829  1.0
  Ti  Ti2131  1  0.87241484  0.56548254  0.61027829  1.0
  Ti  Ti2132  1  0.87241484  0.70833968  0.61027829  1.0
  Ti  Ti2133  1  0.87241484  0.85119683  0.61027829  1.0
  Ti  Ti2134  1  0.87241484  0.99405397  0.61027829  1.0
  Ti  Ti2135  1  0.98352595  0.13691111  0.61027829  1.0
  Ti  Ti2136  1  0.98352595  0.27976825  0.61027829  1.0
  Ti  Ti2137  1  0.98352595  0.42262540  0.61027829  1.0
  Ti  Ti2138  1  0.98352595  0.56548254  0.61027829  1.0
  Ti  Ti2139  1  0.98352595  0.70833968  0.61027829  1.0
  Ti  Ti2140  1  0.98352595  0.85119683  0.61027829  1.0
  Ti  Ti2141  1  0.98352595  0.99405397  0.61027829  1.0
  Ti  Ti2142  1  0.05230902  0.10970023  0.51504020  1.0
  Ti  Ti2143  1  0.05230902  0.25255737  0.51504020  1.0
  Ti  Ti2144  1  0.05230902  0.39541451  0.51504020  1.0
  Ti  Ti2145  1  0.05230902  0.53827166  0.51504020  1.0
  Ti  Ti2146  1  0.05230902  0.68112880  0.51504020  1.0
  Ti  Ti2147  1  0.05230902  0.82398594  0.51504020  1.0
  Ti  Ti2148  1  0.05230902  0.96684308  0.51504020  1.0
  Ti  Ti2149  1  0.16342013  0.10970023  0.51504020  1.0
  Ti  Ti2150  1  0.16342013  0.25255737  0.51504020  1.0
  Ti  Ti2151  1  0.16342013  0.39541451  0.51504020  1.0
  Ti  Ti2152  1  0.16342013  0.53827166  0.51504020  1.0
  Ti  Ti2153  1  0.16342013  0.68112880  0.51504020  1.0
  Ti  Ti2154  1  0.16342013  0.82398594  0.51504020  1.0
  Ti  Ti2155  1  0.16342013  0.96684308  0.51504020  1.0
  Ti  Ti2156  1  0.27453124  0.10970023  0.51504020  1.0
  Ti  Ti2157  1  0.27453124  0.25255737  0.51504020  1.0
  Ti  Ti2158  1  0.27453124  0.39541451  0.51504020  1.0
  Ti  Ti2159  1  0.27453124  0.53827166  0.51504020  1.0
  Ti  Ti2160  1  0.27453124  0.68112880  0.51504020  1.0
  Ti  Ti2161  1  0.27453124  0.82398594  0.51504020  1.0
  Ti  Ti2162  1  0.27453124  0.96684308  0.51504020  1.0
  Ti  Ti2163  1  0.38564235  0.10970023  0.51504020  1.0
  Ti  Ti2164  1  0.38564235  0.25255737  0.51504020  1.0
  Ti  Ti2165  1  0.38564235  0.39541451  0.51504020  1.0
  Ti  Ti2166  1  0.38564235  0.53827166  0.51504020  1.0
  Ti  Ti2167  1  0.38564235  0.68112880  0.51504020  1.0
  Ti  Ti2168  1  0.38564235  0.82398594  0.51504020  1.0
  Ti  Ti2169  1  0.38564235  0.96684308  0.51504020  1.0
  Ti  Ti2170  1  0.49675346  0.10970023  0.51504020  1.0
  Ti  Ti2171  1  0.49675346  0.25255737  0.51504020  1.0
  Ti  Ti2172  1  0.49675346  0.39541451  0.51504020  1.0
  Ti  Ti2173  1  0.49675346  0.53827166  0.51504020  1.0
  Ti  Ti2174  1  0.49675346  0.68112880  0.51504020  1.0
  Ti  Ti2175  1  0.49675346  0.82398594  0.51504020  1.0
  Ti  Ti2176  1  0.49675346  0.96684308  0.51504020  1.0
  Ti  Ti2177  1  0.60786457  0.10970023  0.51504020  1.0
  Ti  Ti2178  1  0.60786457  0.25255737  0.51504020  1.0
  Ti  Ti2179  1  0.60786457  0.39541451  0.51504020  1.0
  Ti  Ti2180  1  0.60786457  0.53827166  0.51504020  1.0
  Ti  Ti2181  1  0.60786457  0.68112880  0.51504020  1.0
  Ti  Ti2182  1  0.60786457  0.82398594  0.51504020  1.0
  Ti  Ti2183  1  0.60786457  0.96684308  0.51504020  1.0
  Ti  Ti2184  1  0.71897568  0.10970023  0.51504020  1.0
  Ti  Ti2185  1  0.71897568  0.25255737  0.51504020  1.0
  Ti  Ti2186  1  0.71897568  0.39541451  0.51504020  1.0
  Ti  Ti2187  1  0.71897568  0.53827166  0.51504020  1.0
  Ti  Ti2188  1  0.71897568  0.68112880  0.51504020  1.0
  Ti  Ti2189  1  0.71897568  0.82398594  0.51504020  1.0
  Ti  Ti2190  1  0.71897568  0.96684308  0.51504020  1.0
  Ti  Ti2191  1  0.83008679  0.10970023  0.51504020  1.0
  Ti  Ti2192  1  0.83008679  0.25255737  0.51504020  1.0
  Ti  Ti2193  1  0.83008679  0.39541451  0.51504020  1.0
  Ti  Ti2194  1  0.83008679  0.53827166  0.51504020  1.0
  Ti  Ti2195  1  0.83008679  0.68112880  0.51504020  1.0
  Ti  Ti2196  1  0.83008679  0.82398594  0.51504020  1.0
  Ti  Ti2197  1  0.83008679  0.96684308  0.51504020  1.0
  Ti  Ti2198  1  0.94119790  0.10970023  0.51504020  1.0
  Ti  Ti2199  1  0.94119790  0.25255737  0.51504020  1.0
  Ti  Ti2200  1  0.94119790  0.39541451  0.51504020  1.0
  Ti  Ti2201  1  0.94119790  0.53827166  0.51504020  1.0
  Ti  Ti2202  1  0.94119790  0.68112880  0.51504020  1.0
  Ti  Ti2203  1  0.94119790  0.82398594  0.51504020  1.0
  Ti  Ti2204  1  0.94119790  0.96684308  0.51504020  1.0
  Ti  Ti2205  1  0.07347304  0.12330567  0.56265925  1.0
  Ti  Ti2206  1  0.07347304  0.26616281  0.56265925  1.0
  Ti  Ti2207  1  0.07347304  0.40901995  0.56265925  1.0
  Ti  Ti2208  1  0.07347304  0.55187710  0.56265925  1.0
  Ti  Ti2209  1  0.07347304  0.69473424  0.56265925  1.0
  Ti  Ti2210  1  0.07347304  0.83759138  0.56265925  1.0
  Ti  Ti2211  1  0.07347304  0.98044853  0.56265925  1.0
  Ti  Ti2212  1  0.18458415  0.12330567  0.56265925  1.0
  Ti  Ti2213  1  0.18458415  0.26616281  0.56265925  1.0
  Ti  Ti2214  1  0.18458415  0.40901995  0.56265925  1.0
  Ti  Ti2215  1  0.18458415  0.55187710  0.56265925  1.0
  Ti  Ti2216  1  0.18458415  0.69473424  0.56265925  1.0
  Ti  Ti2217  1  0.18458415  0.83759138  0.56265925  1.0
  Ti  Ti2218  1  0.18458415  0.98044853  0.56265925  1.0
  Ti  Ti2219  1  0.29569526  0.12330567  0.56265925  1.0
  Ti  Ti2220  1  0.29569526  0.26616281  0.56265925  1.0
  Ti  Ti2221  1  0.29569526  0.40901995  0.56265925  1.0
  Ti  Ti2222  1  0.29569526  0.55187710  0.56265925  1.0
  Ti  Ti2223  1  0.29569526  0.69473424  0.56265925  1.0
  Ti  Ti2224  1  0.29569526  0.83759138  0.56265925  1.0
  Ti  Ti2225  1  0.29569526  0.98044853  0.56265925  1.0
  Ti  Ti2226  1  0.40680637  0.12330567  0.56265925  1.0
  Ti  Ti2227  1  0.40680637  0.26616281  0.56265925  1.0
  Ti  Ti2228  1  0.40680637  0.40901995  0.56265925  1.0
  Ti  Ti2229  1  0.40680637  0.55187710  0.56265925  1.0
  Ti  Ti2230  1  0.40680637  0.69473424  0.56265925  1.0
  Ti  Ti2231  1  0.40680637  0.83759138  0.56265925  1.0
  Ti  Ti2232  1  0.40680637  0.98044853  0.56265925  1.0
  Ti  Ti2233  1  0.51791748  0.12330567  0.56265925  1.0
  Ti  Ti2234  1  0.51791748  0.26616281  0.56265925  1.0
  Ti  Ti2235  1  0.51791748  0.40901995  0.56265925  1.0
  Ti  Ti2236  1  0.51791748  0.55187710  0.56265925  1.0
  Ti  Ti2237  1  0.51791748  0.69473424  0.56265925  1.0
  Ti  Ti2238  1  0.51791748  0.83759138  0.56265925  1.0
  Ti  Ti2239  1  0.51791748  0.98044853  0.56265925  1.0
  Ti  Ti2240  1  0.62902859  0.12330567  0.56265925  1.0
  Ti  Ti2241  1  0.62902859  0.26616281  0.56265925  1.0
  Ti  Ti2242  1  0.62902859  0.40901995  0.56265925  1.0
  Ti  Ti2243  1  0.62902859  0.55187710  0.56265925  1.0
  Ti  Ti2244  1  0.62902859  0.69473424  0.56265925  1.0
  Ti  Ti2245  1  0.62902859  0.83759138  0.56265925  1.0
  Ti  Ti2246  1  0.62902859  0.98044853  0.56265925  1.0
  Ti  Ti2247  1  0.74013970  0.12330567  0.56265925  1.0
  Ti  Ti2248  1  0.74013970  0.26616281  0.56265925  1.0
  Ti  Ti2249  1  0.74013970  0.40901995  0.56265925  1.0
  Ti  Ti2250  1  0.74013970  0.55187710  0.56265925  1.0
  Ti  Ti2251  1  0.74013970  0.69473424  0.56265925  1.0
  Ti  Ti2252  1  0.74013970  0.83759138  0.56265925  1.0
  Ti  Ti2253  1  0.74013970  0.98044853  0.56265925  1.0
  Ti  Ti2254  1  0.85125081  0.12330567  0.56265925  1.0
  Ti  Ti2255  1  0.85125081  0.26616281  0.56265925  1.0
  Ti  Ti2256  1  0.85125081  0.40901995  0.56265925  1.0
  Ti  Ti2257  1  0.85125081  0.55187710  0.56265925  1.0
  Ti  Ti2258  1  0.85125081  0.69473424  0.56265925  1.0
  Ti  Ti2259  1  0.85125081  0.83759138  0.56265925  1.0
  Ti  Ti2260  1  0.85125081  0.98044853  0.56265925  1.0
  Ti  Ti2261  1  0.96236193  0.12330567  0.56265925  1.0
  Ti  Ti2262  1  0.96236193  0.26616281  0.56265925  1.0
  Ti  Ti2263  1  0.96236193  0.40901995  0.56265925  1.0
  Ti  Ti2264  1  0.96236193  0.55187710  0.56265925  1.0
  Ti  Ti2265  1  0.96236193  0.69473424  0.56265925  1.0
  Ti  Ti2266  1  0.96236193  0.83759138  0.56265925  1.0
  Ti  Ti2267  1  0.96236193  0.98044853  0.56265925  1.0
  Ti  Ti2268  1  0.02265849  0.09317678  0.70720812  1.0
  Ti  Ti2269  1  0.02265849  0.23603392  0.70720812  1.0
  Ti  Ti2270  1  0.02265849  0.37889106  0.70720812  1.0
  Ti  Ti2271  1  0.02265849  0.52174821  0.70720812  1.0
  Ti  Ti2272  1  0.02265849  0.66460535  0.70720812  1.0
  Ti  Ti2273  1  0.02265849  0.80746249  0.70720812  1.0
  Ti  Ti2274  1  0.02265849  0.95031963  0.70720812  1.0
  Ti  Ti2275  1  0.13376960  0.09317678  0.70720812  1.0
  Ti  Ti2276  1  0.13376960  0.23603392  0.70720812  1.0
  Ti  Ti2277  1  0.13376960  0.37889106  0.70720812  1.0
  Ti  Ti2278  1  0.13376960  0.52174821  0.70720812  1.0
  Ti  Ti2279  1  0.13376960  0.66460535  0.70720812  1.0
  Ti  Ti2280  1  0.13376960  0.80746249  0.70720812  1.0
  Ti  Ti2281  1  0.13376960  0.95031963  0.70720812  1.0
  Ti  Ti2282  1  0.24488071  0.09317678  0.70720812  1.0
  Ti  Ti2283  1  0.24488071  0.23603392  0.70720812  1.0
  Ti  Ti2284  1  0.24488071  0.37889106  0.70720812  1.0
  Ti  Ti2285  1  0.24488071  0.52174821  0.70720812  1.0
  Ti  Ti2286  1  0.24488071  0.66460535  0.70720812  1.0
  Ti  Ti2287  1  0.24488071  0.80746249  0.70720812  1.0
  Ti  Ti2288  1  0.24488071  0.95031963  0.70720812  1.0
  Ti  Ti2289  1  0.35599183  0.09317678  0.70720812  1.0
  Ti  Ti2290  1  0.35599183  0.23603392  0.70720812  1.0
  Ti  Ti2291  1  0.35599183  0.37889106  0.70720812  1.0
  Ti  Ti2292  1  0.35599183  0.52174821  0.70720812  1.0
  Ti  Ti2293  1  0.35599183  0.66460535  0.70720812  1.0
  Ti  Ti2294  1  0.35599183  0.80746249  0.70720812  1.0
  Ti  Ti2295  1  0.35599183  0.95031963  0.70720812  1.0
  Ti  Ti2296  1  0.46710294  0.09317678  0.70720812  1.0
  Ti  Ti2297  1  0.46710294  0.23603392  0.70720812  1.0
  Ti  Ti2298  1  0.46710294  0.37889106  0.70720812  1.0
  Ti  Ti2299  1  0.46710294  0.52174821  0.70720812  1.0
  Ti  Ti2300  1  0.46710294  0.66460535  0.70720812  1.0
  Ti  Ti2301  1  0.46710294  0.80746249  0.70720812  1.0
  Ti  Ti2302  1  0.46710294  0.95031963  0.70720812  1.0
  Ti  Ti2303  1  0.57821405  0.09317678  0.70720812  1.0
  Ti  Ti2304  1  0.57821405  0.23603392  0.70720812  1.0
  Ti  Ti2305  1  0.57821405  0.37889106  0.70720812  1.0
  Ti  Ti2306  1  0.57821405  0.52174821  0.70720812  1.0
  Ti  Ti2307  1  0.57821405  0.66460535  0.70720812  1.0
  Ti  Ti2308  1  0.57821405  0.80746249  0.70720812  1.0
  Ti  Ti2309  1  0.57821405  0.95031963  0.70720812  1.0
  Ti  Ti2310  1  0.68932516  0.09317678  0.70720812  1.0
  Ti  Ti2311  1  0.68932516  0.23603392  0.70720812  1.0
  Ti  Ti2312  1  0.68932516  0.37889106  0.70720812  1.0
  Ti  Ti2313  1  0.68932516  0.52174821  0.70720812  1.0
  Ti  Ti2314  1  0.68932516  0.66460535  0.70720812  1.0
  Ti  Ti2315  1  0.68932516  0.80746249  0.70720812  1.0
  Ti  Ti2316  1  0.68932516  0.95031963  0.70720812  1.0
  Ti  Ti2317  1  0.80043627  0.09317678  0.70720812  1.0
  Ti  Ti2318  1  0.80043627  0.23603392  0.70720812  1.0
  Ti  Ti2319  1  0.80043627  0.37889106  0.70720812  1.0
  Ti  Ti2320  1  0.80043627  0.52174821  0.70720812  1.0
  Ti  Ti2321  1  0.80043627  0.66460535  0.70720812  1.0
  Ti  Ti2322  1  0.80043627  0.80746249  0.70720812  1.0
  Ti  Ti2323  1  0.80043627  0.95031963  0.70720812  1.0
  Ti  Ti2324  1  0.91154738  0.09317678  0.70720812  1.0
  Ti  Ti2325  1  0.91154738  0.23603392  0.70720812  1.0
  Ti  Ti2326  1  0.91154738  0.37889106  0.70720812  1.0
  Ti  Ti2327  1  0.91154738  0.52174821  0.70720812  1.0
  Ti  Ti2328  1  0.91154738  0.66460535  0.70720812  1.0
  Ti  Ti2329  1  0.91154738  0.80746249  0.70720812  1.0
  Ti  Ti2330  1  0.91154738  0.95031963  0.70720812  1.0
  Ti  Ti2331  1  0.04382251  0.10678222  0.75482717  1.0
  Ti  Ti2332  1  0.04382251  0.24963936  0.75482717  1.0
  Ti  Ti2333  1  0.04382251  0.39249650  0.75482717  1.0
  Ti  Ti2334  1  0.04382251  0.53535365  0.75482717  1.0
  Ti  Ti2335  1  0.04382251  0.67821079  0.75482717  1.0
  Ti  Ti2336  1  0.04382251  0.82106793  0.75482717  1.0
  Ti  Ti2337  1  0.04382251  0.96392508  0.75482717  1.0
  Ti  Ti2338  1  0.15493362  0.10678222  0.75482717  1.0
  Ti  Ti2339  1  0.15493362  0.24963936  0.75482717  1.0
  Ti  Ti2340  1  0.15493362  0.39249650  0.75482717  1.0
  Ti  Ti2341  1  0.15493362  0.53535365  0.75482717  1.0
  Ti  Ti2342  1  0.15493362  0.67821079  0.75482717  1.0
  Ti  Ti2343  1  0.15493362  0.82106793  0.75482717  1.0
  Ti  Ti2344  1  0.15493362  0.96392508  0.75482717  1.0
  Ti  Ti2345  1  0.26604474  0.10678222  0.75482717  1.0
  Ti  Ti2346  1  0.26604474  0.24963936  0.75482717  1.0
  Ti  Ti2347  1  0.26604474  0.39249650  0.75482717  1.0
  Ti  Ti2348  1  0.26604474  0.53535365  0.75482717  1.0
  Ti  Ti2349  1  0.26604474  0.67821079  0.75482717  1.0
  Ti  Ti2350  1  0.26604474  0.82106793  0.75482717  1.0
  Ti  Ti2351  1  0.26604474  0.96392508  0.75482717  1.0
  Ti  Ti2352  1  0.37715585  0.10678222  0.75482717  1.0
  Ti  Ti2353  1  0.37715585  0.24963936  0.75482717  1.0
  Ti  Ti2354  1  0.37715585  0.39249650  0.75482717  1.0
  Ti  Ti2355  1  0.37715585  0.53535365  0.75482717  1.0
  Ti  Ti2356  1  0.37715585  0.67821079  0.75482717  1.0
  Ti  Ti2357  1  0.37715585  0.82106793  0.75482717  1.0
  Ti  Ti2358  1  0.37715585  0.96392508  0.75482717  1.0
  Ti  Ti2359  1  0.48826696  0.10678222  0.75482717  1.0
  Ti  Ti2360  1  0.48826696  0.24963936  0.75482717  1.0
  Ti  Ti2361  1  0.48826696  0.39249650  0.75482717  1.0
  Ti  Ti2362  1  0.48826696  0.53535365  0.75482717  1.0
  Ti  Ti2363  1  0.48826696  0.67821079  0.75482717  1.0
  Ti  Ti2364  1  0.48826696  0.82106793  0.75482717  1.0
  Ti  Ti2365  1  0.48826696  0.96392508  0.75482717  1.0
  Ti  Ti2366  1  0.59937807  0.10678222  0.75482717  1.0
  Ti  Ti2367  1  0.59937807  0.24963936  0.75482717  1.0
  Ti  Ti2368  1  0.59937807  0.39249650  0.75482717  1.0
  Ti  Ti2369  1  0.59937807  0.53535365  0.75482717  1.0
  Ti  Ti2370  1  0.59937807  0.67821079  0.75482717  1.0
  Ti  Ti2371  1  0.59937807  0.82106793  0.75482717  1.0
  Ti  Ti2372  1  0.59937807  0.96392508  0.75482717  1.0
  Ti  Ti2373  1  0.71048918  0.10678222  0.75482717  1.0
  Ti  Ti2374  1  0.71048918  0.24963936  0.75482717  1.0
  Ti  Ti2375  1  0.71048918  0.39249650  0.75482717  1.0
  Ti  Ti2376  1  0.71048918  0.53535365  0.75482717  1.0
  Ti  Ti2377  1  0.71048918  0.67821079  0.75482717  1.0
  Ti  Ti2378  1  0.71048918  0.82106793  0.75482717  1.0
  Ti  Ti2379  1  0.71048918  0.96392508  0.75482717  1.0
  Ti  Ti2380  1  0.82160029  0.10678222  0.75482717  1.0
  Ti  Ti2381  1  0.82160029  0.24963936  0.75482717  1.0
  Ti  Ti2382  1  0.82160029  0.39249650  0.75482717  1.0
  Ti  Ti2383  1  0.82160029  0.53535365  0.75482717  1.0
  Ti  Ti2384  1  0.82160029  0.67821079  0.75482717  1.0
  Ti  Ti2385  1  0.82160029  0.82106793  0.75482717  1.0
  Ti  Ti2386  1  0.82160029  0.96392508  0.75482717  1.0
  Ti  Ti2387  1  0.93271140  0.10678222  0.75482717  1.0
  Ti  Ti2388  1  0.93271140  0.24963936  0.75482717  1.0
  Ti  Ti2389  1  0.93271140  0.39249650  0.75482717  1.0
  Ti  Ti2390  1  0.93271140  0.53535365  0.75482717  1.0
  Ti  Ti2391  1  0.93271140  0.67821079  0.75482717  1.0
  Ti  Ti2392  1  0.93271140  0.82106793  0.75482717  1.0
  Ti  Ti2393  1  0.93271140  0.96392508  0.75482717  1.0
  Ti  Ti2394  1  0.00149447  0.07957133  0.65958908  1.0
  Ti  Ti2395  1  0.00149447  0.22242848  0.65958908  1.0
  Ti  Ti2396  1  0.00149447  0.36528562  0.65958908  1.0
  Ti  Ti2397  1  0.00149447  0.50814276  0.65958908  1.0
  Ti  Ti2398  1  0.00149447  0.65099991  0.65958908  1.0
  Ti  Ti2399  1  0.00149447  0.79385705  0.65958908  1.0
  Ti  Ti2400  1  0.00149447  0.93671419  0.65958908  1.0
  Ti  Ti2401  1  0.11260558  0.07957133  0.65958908  1.0
  Ti  Ti2402  1  0.11260558  0.22242848  0.65958908  1.0
  Ti  Ti2403  1  0.11260558  0.36528562  0.65958908  1.0
  Ti  Ti2404  1  0.11260558  0.50814276  0.65958908  1.0
  Ti  Ti2405  1  0.11260558  0.65099991  0.65958908  1.0
  Ti  Ti2406  1  0.11260558  0.79385705  0.65958908  1.0
  Ti  Ti2407  1  0.11260558  0.93671419  0.65958908  1.0
  Ti  Ti2408  1  0.22371669  0.07957133  0.65958908  1.0
  Ti  Ti2409  1  0.22371669  0.22242848  0.65958908  1.0
  Ti  Ti2410  1  0.22371669  0.36528562  0.65958908  1.0
  Ti  Ti2411  1  0.22371669  0.50814276  0.65958908  1.0
  Ti  Ti2412  1  0.22371669  0.65099991  0.65958908  1.0
  Ti  Ti2413  1  0.22371669  0.79385705  0.65958908  1.0
  Ti  Ti2414  1  0.22371669  0.93671419  0.65958908  1.0
  Ti  Ti2415  1  0.33482780  0.07957133  0.65958908  1.0
  Ti  Ti2416  1  0.33482780  0.22242848  0.65958908  1.0
  Ti  Ti2417  1  0.33482780  0.36528562  0.65958908  1.0
  Ti  Ti2418  1  0.33482780  0.50814276  0.65958908  1.0
  Ti  Ti2419  1  0.33482780  0.65099991  0.65958908  1.0
  Ti  Ti2420  1  0.33482780  0.79385705  0.65958908  1.0
  Ti  Ti2421  1  0.33482780  0.93671419  0.65958908  1.0
  Ti  Ti2422  1  0.44593892  0.07957133  0.65958908  1.0
  Ti  Ti2423  1  0.44593892  0.22242848  0.65958908  1.0
  Ti  Ti2424  1  0.44593892  0.36528562  0.65958908  1.0
  Ti  Ti2425  1  0.44593892  0.50814276  0.65958908  1.0
  Ti  Ti2426  1  0.44593892  0.65099991  0.65958908  1.0
  Ti  Ti2427  1  0.44593892  0.79385705  0.65958908  1.0
  Ti  Ti2428  1  0.44593892  0.93671419  0.65958908  1.0
  Ti  Ti2429  1  0.55705003  0.07957133  0.65958908  1.0
  Ti  Ti2430  1  0.55705003  0.22242848  0.65958908  1.0
  Ti  Ti2431  1  0.55705003  0.36528562  0.65958908  1.0
  Ti  Ti2432  1  0.55705003  0.50814276  0.65958908  1.0
  Ti  Ti2433  1  0.55705003  0.65099991  0.65958908  1.0
  Ti  Ti2434  1  0.55705003  0.79385705  0.65958908  1.0
  Ti  Ti2435  1  0.55705003  0.93671419  0.65958908  1.0
  Ti  Ti2436  1  0.66816114  0.07957133  0.65958908  1.0
  Ti  Ti2437  1  0.66816114  0.22242848  0.65958908  1.0
  Ti  Ti2438  1  0.66816114  0.36528562  0.65958908  1.0
  Ti  Ti2439  1  0.66816114  0.50814276  0.65958908  1.0
  Ti  Ti2440  1  0.66816114  0.65099991  0.65958908  1.0
  Ti  Ti2441  1  0.66816114  0.79385705  0.65958908  1.0
  Ti  Ti2442  1  0.66816114  0.93671419  0.65958908  1.0
  Ti  Ti2443  1  0.77927225  0.07957133  0.65958908  1.0
  Ti  Ti2444  1  0.77927225  0.22242848  0.65958908  1.0
  Ti  Ti2445  1  0.77927225  0.36528562  0.65958908  1.0
  Ti  Ti2446  1  0.77927225  0.50814276  0.65958908  1.0
  Ti  Ti2447  1  0.77927225  0.65099991  0.65958908  1.0
  Ti  Ti2448  1  0.77927225  0.79385705  0.65958908  1.0
  Ti  Ti2449  1  0.77927225  0.93671419  0.65958908  1.0
  Ti  Ti2450  1  0.89038336  0.07957133  0.65958908  1.0
  Ti  Ti2451  1  0.89038336  0.22242848  0.65958908  1.0
  Ti  Ti2452  1  0.89038336  0.36528562  0.65958908  1.0
  Ti  Ti2453  1  0.89038336  0.50814276  0.65958908  1.0
  Ti  Ti2454  1  0.89038336  0.65099991  0.65958908  1.0
  Ti  Ti2455  1  0.89038336  0.79385705  0.65958908  1.0
  Ti  Ti2456  1  0.89038336  0.93671419  0.65958908  1.0
  Ti  Ti2457  1  0.08845262  0.04968037  0.72136331  1.0
  Ti  Ti2458  1  0.08845262  0.19253751  0.72136331  1.0
  Ti  Ti2459  1  0.08845262  0.33539465  0.72136331  1.0
  Ti  Ti2460  1  0.08845262  0.47825179  0.72136331  1.0
  Ti  Ti2461  1  0.08845262  0.62110894  0.72136331  1.0
  Ti  Ti2462  1  0.08845262  0.76396608  0.72136331  1.0
  Ti  Ti2463  1  0.08845262  0.90682322  0.72136331  1.0
  Ti  Ti2464  1  0.19956373  0.04968037  0.72136331  1.0
  Ti  Ti2465  1  0.19956373  0.19253751  0.72136331  1.0
  Ti  Ti2466  1  0.19956373  0.33539465  0.72136331  1.0
  Ti  Ti2467  1  0.19956373  0.47825179  0.72136331  1.0
  Ti  Ti2468  1  0.19956373  0.62110894  0.72136331  1.0
  Ti  Ti2469  1  0.19956373  0.76396608  0.72136331  1.0
  Ti  Ti2470  1  0.19956373  0.90682322  0.72136331  1.0
  Ti  Ti2471  1  0.31067484  0.04968037  0.72136331  1.0
  Ti  Ti2472  1  0.31067484  0.19253751  0.72136331  1.0
  Ti  Ti2473  1  0.31067484  0.33539465  0.72136331  1.0
  Ti  Ti2474  1  0.31067484  0.47825179  0.72136331  1.0
  Ti  Ti2475  1  0.31067484  0.62110894  0.72136331  1.0
  Ti  Ti2476  1  0.31067484  0.76396608  0.72136331  1.0
  Ti  Ti2477  1  0.31067484  0.90682322  0.72136331  1.0
  Ti  Ti2478  1  0.42178595  0.04968037  0.72136331  1.0
  Ti  Ti2479  1  0.42178595  0.19253751  0.72136331  1.0
  Ti  Ti2480  1  0.42178595  0.33539465  0.72136331  1.0
  Ti  Ti2481  1  0.42178595  0.47825179  0.72136331  1.0
  Ti  Ti2482  1  0.42178595  0.62110894  0.72136331  1.0
  Ti  Ti2483  1  0.42178595  0.76396608  0.72136331  1.0
  Ti  Ti2484  1  0.42178595  0.90682322  0.72136331  1.0
  Ti  Ti2485  1  0.53289706  0.04968037  0.72136331  1.0
  Ti  Ti2486  1  0.53289706  0.19253751  0.72136331  1.0
  Ti  Ti2487  1  0.53289706  0.33539465  0.72136331  1.0
  Ti  Ti2488  1  0.53289706  0.47825179  0.72136331  1.0
  Ti  Ti2489  1  0.53289706  0.62110894  0.72136331  1.0
  Ti  Ti2490  1  0.53289706  0.76396608  0.72136331  1.0
  Ti  Ti2491  1  0.53289706  0.90682322  0.72136331  1.0
  Ti  Ti2492  1  0.64400817  0.04968037  0.72136331  1.0
  Ti  Ti2493  1  0.64400817  0.19253751  0.72136331  1.0
  Ti  Ti2494  1  0.64400817  0.33539465  0.72136331  1.0
  Ti  Ti2495  1  0.64400817  0.47825179  0.72136331  1.0
  Ti  Ti2496  1  0.64400817  0.62110894  0.72136331  1.0
  Ti  Ti2497  1  0.64400817  0.76396608  0.72136331  1.0
  Ti  Ti2498  1  0.64400817  0.90682322  0.72136331  1.0
  Ti  Ti2499  1  0.75511929  0.04968037  0.72136331  1.0
  Ti  Ti2500  1  0.75511929  0.19253751  0.72136331  1.0
  Ti  Ti2501  1  0.75511929  0.33539465  0.72136331  1.0
  Ti  Ti2502  1  0.75511929  0.47825179  0.72136331  1.0
  Ti  Ti2503  1  0.75511929  0.62110894  0.72136331  1.0
  Ti  Ti2504  1  0.75511929  0.76396608  0.72136331  1.0
  Ti  Ti2505  1  0.75511929  0.90682322  0.72136331  1.0
  Ti  Ti2506  1  0.86623040  0.04968037  0.72136331  1.0
  Ti  Ti2507  1  0.86623040  0.19253751  0.72136331  1.0
  Ti  Ti2508  1  0.86623040  0.33539465  0.72136331  1.0
  Ti  Ti2509  1  0.86623040  0.47825179  0.72136331  1.0
  Ti  Ti2510  1  0.86623040  0.62110894  0.72136331  1.0
  Ti  Ti2511  1  0.86623040  0.76396608  0.72136331  1.0
  Ti  Ti2512  1  0.86623040  0.90682322  0.72136331  1.0
  Ti  Ti2513  1  0.97734151  0.04968037  0.72136331  1.0
  Ti  Ti2514  1  0.97734151  0.19253751  0.72136331  1.0
  Ti  Ti2515  1  0.97734151  0.33539465  0.72136331  1.0
  Ti  Ti2516  1  0.97734151  0.47825179  0.72136331  1.0
  Ti  Ti2517  1  0.97734151  0.62110894  0.72136331  1.0
  Ti  Ti2518  1  0.97734151  0.76396608  0.72136331  1.0
  Ti  Ti2519  1  0.97734151  0.90682322  0.72136331  1.0
  Ti  Ti2520  1  0.10961664  0.06328581  0.76898235  1.0
  Ti  Ti2521  1  0.10961664  0.20614295  0.76898235  1.0
  Ti  Ti2522  1  0.10961664  0.34900009  0.76898235  1.0
  Ti  Ti2523  1  0.10961664  0.49185724  0.76898235  1.0
  Ti  Ti2524  1  0.10961664  0.63471438  0.76898235  1.0
  Ti  Ti2525  1  0.10961664  0.77757152  0.76898235  1.0
  Ti  Ti2526  1  0.10961664  0.92042867  0.76898235  1.0
  Ti  Ti2527  1  0.22072775  0.06328581  0.76898235  1.0
  Ti  Ti2528  1  0.22072775  0.20614295  0.76898235  1.0
  Ti  Ti2529  1  0.22072775  0.34900009  0.76898235  1.0
  Ti  Ti2530  1  0.22072775  0.49185724  0.76898235  1.0
  Ti  Ti2531  1  0.22072775  0.63471438  0.76898235  1.0
  Ti  Ti2532  1  0.22072775  0.77757152  0.76898235  1.0
  Ti  Ti2533  1  0.22072775  0.92042867  0.76898235  1.0
  Ti  Ti2534  1  0.33183886  0.06328581  0.76898235  1.0
  Ti  Ti2535  1  0.33183886  0.20614295  0.76898235  1.0
  Ti  Ti2536  1  0.33183886  0.34900009  0.76898235  1.0
  Ti  Ti2537  1  0.33183886  0.49185724  0.76898235  1.0
  Ti  Ti2538  1  0.33183886  0.63471438  0.76898235  1.0
  Ti  Ti2539  1  0.33183886  0.77757152  0.76898235  1.0
  Ti  Ti2540  1  0.33183886  0.92042867  0.76898235  1.0
  Ti  Ti2541  1  0.44294997  0.06328581  0.76898235  1.0
  Ti  Ti2542  1  0.44294997  0.20614295  0.76898235  1.0
  Ti  Ti2543  1  0.44294997  0.34900009  0.76898235  1.0
  Ti  Ti2544  1  0.44294997  0.49185724  0.76898235  1.0
  Ti  Ti2545  1  0.44294997  0.63471438  0.76898235  1.0
  Ti  Ti2546  1  0.44294997  0.77757152  0.76898235  1.0
  Ti  Ti2547  1  0.44294997  0.92042867  0.76898235  1.0
  Ti  Ti2548  1  0.55406108  0.06328581  0.76898235  1.0
  Ti  Ti2549  1  0.55406108  0.20614295  0.76898235  1.0
  Ti  Ti2550  1  0.55406108  0.34900009  0.76898235  1.0
  Ti  Ti2551  1  0.55406108  0.49185724  0.76898235  1.0
  Ti  Ti2552  1  0.55406108  0.63471438  0.76898235  1.0
  Ti  Ti2553  1  0.55406108  0.77757152  0.76898235  1.0
  Ti  Ti2554  1  0.55406108  0.92042867  0.76898235  1.0
  Ti  Ti2555  1  0.66517220  0.06328581  0.76898235  1.0
  Ti  Ti2556  1  0.66517220  0.20614295  0.76898235  1.0
  Ti  Ti2557  1  0.66517220  0.34900009  0.76898235  1.0
  Ti  Ti2558  1  0.66517220  0.49185724  0.76898235  1.0
  Ti  Ti2559  1  0.66517220  0.63471438  0.76898235  1.0
  Ti  Ti2560  1  0.66517220  0.77757152  0.76898235  1.0
  Ti  Ti2561  1  0.66517220  0.92042867  0.76898235  1.0
  Ti  Ti2562  1  0.77628331  0.06328581  0.76898235  1.0
  Ti  Ti2563  1  0.77628331  0.20614295  0.76898235  1.0
  Ti  Ti2564  1  0.77628331  0.34900009  0.76898235  1.0
  Ti  Ti2565  1  0.77628331  0.49185724  0.76898235  1.0
  Ti  Ti2566  1  0.77628331  0.63471438  0.76898235  1.0
  Ti  Ti2567  1  0.77628331  0.77757152  0.76898235  1.0
  Ti  Ti2568  1  0.77628331  0.92042867  0.76898235  1.0
  Ti  Ti2569  1  0.88739442  0.06328581  0.76898235  1.0
  Ti  Ti2570  1  0.88739442  0.20614295  0.76898235  1.0
  Ti  Ti2571  1  0.88739442  0.34900009  0.76898235  1.0
  Ti  Ti2572  1  0.88739442  0.49185724  0.76898235  1.0
  Ti  Ti2573  1  0.88739442  0.63471438  0.76898235  1.0
  Ti  Ti2574  1  0.88739442  0.77757152  0.76898235  1.0
  Ti  Ti2575  1  0.88739442  0.92042867  0.76898235  1.0
  Ti  Ti2576  1  0.99850553  0.06328581  0.76898235  1.0
  Ti  Ti2577  1  0.99850553  0.20614295  0.76898235  1.0
  Ti  Ti2578  1  0.99850553  0.34900009  0.76898235  1.0
  Ti  Ti2579  1  0.99850553  0.49185724  0.76898235  1.0
  Ti  Ti2580  1  0.99850553  0.63471438  0.76898235  1.0
  Ti  Ti2581  1  0.99850553  0.77757152  0.76898235  1.0
  Ti  Ti2582  1  0.99850553  0.92042867  0.76898235  1.0
  Ti  Ti2583  1  0.06728860  0.03607492  0.67374426  1.0
  Ti  Ti2584  1  0.06728860  0.17893207  0.67374426  1.0
  Ti  Ti2585  1  0.06728860  0.32178921  0.67374426  1.0
  Ti  Ti2586  1  0.06728860  0.46464635  0.67374426  1.0
  Ti  Ti2587  1  0.06728860  0.60750350  0.67374426  1.0
  Ti  Ti2588  1  0.06728860  0.75036064  0.67374426  1.0
  Ti  Ti2589  1  0.06728860  0.89321778  0.67374426  1.0
  Ti  Ti2590  1  0.17839971  0.03607492  0.67374426  1.0
  Ti  Ti2591  1  0.17839971  0.17893207  0.67374426  1.0
  Ti  Ti2592  1  0.17839971  0.32178921  0.67374426  1.0
  Ti  Ti2593  1  0.17839971  0.46464635  0.67374426  1.0
  Ti  Ti2594  1  0.17839971  0.60750350  0.67374426  1.0
  Ti  Ti2595  1  0.17839971  0.75036064  0.67374426  1.0
  Ti  Ti2596  1  0.17839971  0.89321778  0.67374426  1.0
  Ti  Ti2597  1  0.28951082  0.03607492  0.67374426  1.0
  Ti  Ti2598  1  0.28951082  0.17893207  0.67374426  1.0
  Ti  Ti2599  1  0.28951082  0.32178921  0.67374426  1.0
  Ti  Ti2600  1  0.28951082  0.46464635  0.67374426  1.0
  Ti  Ti2601  1  0.28951082  0.60750350  0.67374426  1.0
  Ti  Ti2602  1  0.28951082  0.75036064  0.67374426  1.0
  Ti  Ti2603  1  0.28951082  0.89321778  0.67374426  1.0
  Ti  Ti2604  1  0.40062193  0.03607492  0.67374426  1.0
  Ti  Ti2605  1  0.40062193  0.17893207  0.67374426  1.0
  Ti  Ti2606  1  0.40062193  0.32178921  0.67374426  1.0
  Ti  Ti2607  1  0.40062193  0.46464635  0.67374426  1.0
  Ti  Ti2608  1  0.40062193  0.60750350  0.67374426  1.0
  Ti  Ti2609  1  0.40062193  0.75036064  0.67374426  1.0
  Ti  Ti2610  1  0.40062193  0.89321778  0.67374426  1.0
  Ti  Ti2611  1  0.51173304  0.03607492  0.67374426  1.0
  Ti  Ti2612  1  0.51173304  0.17893207  0.67374426  1.0
  Ti  Ti2613  1  0.51173304  0.32178921  0.67374426  1.0
  Ti  Ti2614  1  0.51173304  0.46464635  0.67374426  1.0
  Ti  Ti2615  1  0.51173304  0.60750350  0.67374426  1.0
  Ti  Ti2616  1  0.51173304  0.75036064  0.67374426  1.0
  Ti  Ti2617  1  0.51173304  0.89321778  0.67374426  1.0
  Ti  Ti2618  1  0.62284415  0.03607492  0.67374426  1.0
  Ti  Ti2619  1  0.62284415  0.17893207  0.67374426  1.0
  Ti  Ti2620  1  0.62284415  0.32178921  0.67374426  1.0
  Ti  Ti2621  1  0.62284415  0.46464635  0.67374426  1.0
  Ti  Ti2622  1  0.62284415  0.60750350  0.67374426  1.0
  Ti  Ti2623  1  0.62284415  0.75036064  0.67374426  1.0
  Ti  Ti2624  1  0.62284415  0.89321778  0.67374426  1.0
  Ti  Ti2625  1  0.73395526  0.03607492  0.67374426  1.0
  Ti  Ti2626  1  0.73395526  0.17893207  0.67374426  1.0
  Ti  Ti2627  1  0.73395526  0.32178921  0.67374426  1.0
  Ti  Ti2628  1  0.73395526  0.46464635  0.67374426  1.0
  Ti  Ti2629  1  0.73395526  0.60750350  0.67374426  1.0
  Ti  Ti2630  1  0.73395526  0.75036064  0.67374426  1.0
  Ti  Ti2631  1  0.73395526  0.89321778  0.67374426  1.0
  Ti  Ti2632  1  0.84506638  0.03607492  0.67374426  1.0
  Ti  Ti2633  1  0.84506638  0.17893207  0.67374426  1.0
  Ti  Ti2634  1  0.84506638  0.32178921  0.67374426  1.0
  Ti  Ti2635  1  0.84506638  0.46464635  0.67374426  1.0
  Ti  Ti2636  1  0.84506638  0.60750350  0.67374426  1.0
  Ti  Ti2637  1  0.84506638  0.75036064  0.67374426  1.0
  Ti  Ti2638  1  0.84506638  0.89321778  0.67374426  1.0
  Ti  Ti2639  1  0.95617749  0.03607492  0.67374426  1.0
  Ti  Ti2640  1  0.95617749  0.17893207  0.67374426  1.0
  Ti  Ti2641  1  0.95617749  0.32178921  0.67374426  1.0
  Ti  Ti2642  1  0.95617749  0.46464635  0.67374426  1.0
  Ti  Ti2643  1  0.95617749  0.60750350  0.67374426  1.0
  Ti  Ti2644  1  0.95617749  0.75036064  0.67374426  1.0
  Ti  Ti2645  1  0.95617749  0.89321778  0.67374426  1.0
  Ti  Ti2646  1  0.06409310  0.10798685  0.67543599  1.0
  Ti  Ti2647  1  0.06409310  0.25084399  0.67543599  1.0
  Ti  Ti2648  1  0.06409310  0.39370113  0.67543599  1.0
  Ti  Ti2649  1  0.06409310  0.53655828  0.67543599  1.0
  Ti  Ti2650  1  0.06409310  0.67941542  0.67543599  1.0
  Ti  Ti2651  1  0.06409310  0.82227256  0.67543599  1.0
  Ti  Ti2652  1  0.06409310  0.96512970  0.67543599  1.0
  Ti  Ti2653  1  0.17520421  0.10798685  0.67543599  1.0
  Ti  Ti2654  1  0.17520421  0.25084399  0.67543599  1.0
  Ti  Ti2655  1  0.17520421  0.39370113  0.67543599  1.0
  Ti  Ti2656  1  0.17520421  0.53655828  0.67543599  1.0
  Ti  Ti2657  1  0.17520421  0.67941542  0.67543599  1.0
  Ti  Ti2658  1  0.17520421  0.82227256  0.67543599  1.0
  Ti  Ti2659  1  0.17520421  0.96512970  0.67543599  1.0
  Ti  Ti2660  1  0.28631532  0.10798685  0.67543599  1.0
  Ti  Ti2661  1  0.28631532  0.25084399  0.67543599  1.0
  Ti  Ti2662  1  0.28631532  0.39370113  0.67543599  1.0
  Ti  Ti2663  1  0.28631532  0.53655828  0.67543599  1.0
  Ti  Ti2664  1  0.28631532  0.67941542  0.67543599  1.0
  Ti  Ti2665  1  0.28631532  0.82227256  0.67543599  1.0
  Ti  Ti2666  1  0.28631532  0.96512970  0.67543599  1.0
  Ti  Ti2667  1  0.39742643  0.10798685  0.67543599  1.0
  Ti  Ti2668  1  0.39742643  0.25084399  0.67543599  1.0
  Ti  Ti2669  1  0.39742643  0.39370113  0.67543599  1.0
  Ti  Ti2670  1  0.39742643  0.53655828  0.67543599  1.0
  Ti  Ti2671  1  0.39742643  0.67941542  0.67543599  1.0
  Ti  Ti2672  1  0.39742643  0.82227256  0.67543599  1.0
  Ti  Ti2673  1  0.39742643  0.96512970  0.67543599  1.0
  Ti  Ti2674  1  0.50853755  0.10798685  0.67543599  1.0
  Ti  Ti2675  1  0.50853755  0.25084399  0.67543599  1.0
  Ti  Ti2676  1  0.50853755  0.39370113  0.67543599  1.0
  Ti  Ti2677  1  0.50853755  0.53655828  0.67543599  1.0
  Ti  Ti2678  1  0.50853755  0.67941542  0.67543599  1.0
  Ti  Ti2679  1  0.50853755  0.82227256  0.67543599  1.0
  Ti  Ti2680  1  0.50853755  0.96512970  0.67543599  1.0
  Ti  Ti2681  1  0.61964866  0.10798685  0.67543599  1.0
  Ti  Ti2682  1  0.61964866  0.25084399  0.67543599  1.0
  Ti  Ti2683  1  0.61964866  0.39370113  0.67543599  1.0
  Ti  Ti2684  1  0.61964866  0.53655828  0.67543599  1.0
  Ti  Ti2685  1  0.61964866  0.67941542  0.67543599  1.0
  Ti  Ti2686  1  0.61964866  0.82227256  0.67543599  1.0
  Ti  Ti2687  1  0.61964866  0.96512970  0.67543599  1.0
  Ti  Ti2688  1  0.73075977  0.10798685  0.67543599  1.0
  Ti  Ti2689  1  0.73075977  0.25084399  0.67543599  1.0
  Ti  Ti2690  1  0.73075977  0.39370113  0.67543599  1.0
  Ti  Ti2691  1  0.73075977  0.53655828  0.67543599  1.0
  Ti  Ti2692  1  0.73075977  0.67941542  0.67543599  1.0
  Ti  Ti2693  1  0.73075977  0.82227256  0.67543599  1.0
  Ti  Ti2694  1  0.73075977  0.96512970  0.67543599  1.0
  Ti  Ti2695  1  0.84187088  0.10798685  0.67543599  1.0
  Ti  Ti2696  1  0.84187088  0.25084399  0.67543599  1.0
  Ti  Ti2697  1  0.84187088  0.39370113  0.67543599  1.0
  Ti  Ti2698  1  0.84187088  0.53655828  0.67543599  1.0
  Ti  Ti2699  1  0.84187088  0.67941542  0.67543599  1.0
  Ti  Ti2700  1  0.84187088  0.82227256  0.67543599  1.0
  Ti  Ti2701  1  0.84187088  0.96512970  0.67543599  1.0
  Ti  Ti2702  1  0.95298199  0.10798685  0.67543599  1.0
  Ti  Ti2703  1  0.95298199  0.25084399  0.67543599  1.0
  Ti  Ti2704  1  0.95298199  0.39370113  0.67543599  1.0
  Ti  Ti2705  1  0.95298199  0.53655828  0.67543599  1.0
  Ti  Ti2706  1  0.95298199  0.67941542  0.67543599  1.0
  Ti  Ti2707  1  0.95298199  0.82227256  0.67543599  1.0
  Ti  Ti2708  1  0.95298199  0.96512970  0.67543599  1.0
  Ti  Ti2709  1  0.08525712  0.12159229  0.72305504  1.0
  Ti  Ti2710  1  0.08525712  0.26444943  0.72305504  1.0
  Ti  Ti2711  1  0.08525712  0.40730658  0.72305504  1.0
  Ti  Ti2712  1  0.08525712  0.55016372  0.72305504  1.0
  Ti  Ti2713  1  0.08525712  0.69302086  0.72305504  1.0
  Ti  Ti2714  1  0.08525712  0.83587800  0.72305504  1.0
  Ti  Ti2715  1  0.08525712  0.97873515  0.72305504  1.0
  Ti  Ti2716  1  0.19636823  0.12159229  0.72305504  1.0
  Ti  Ti2717  1  0.19636823  0.26444943  0.72305504  1.0
  Ti  Ti2718  1  0.19636823  0.40730658  0.72305504  1.0
  Ti  Ti2719  1  0.19636823  0.55016372  0.72305504  1.0
  Ti  Ti2720  1  0.19636823  0.69302086  0.72305504  1.0
  Ti  Ti2721  1  0.19636823  0.83587800  0.72305504  1.0
  Ti  Ti2722  1  0.19636823  0.97873515  0.72305504  1.0
  Ti  Ti2723  1  0.30747934  0.12159229  0.72305504  1.0
  Ti  Ti2724  1  0.30747934  0.26444943  0.72305504  1.0
  Ti  Ti2725  1  0.30747934  0.40730658  0.72305504  1.0
  Ti  Ti2726  1  0.30747934  0.55016372  0.72305504  1.0
  Ti  Ti2727  1  0.30747934  0.69302086  0.72305504  1.0
  Ti  Ti2728  1  0.30747934  0.83587800  0.72305504  1.0
  Ti  Ti2729  1  0.30747934  0.97873515  0.72305504  1.0
  Ti  Ti2730  1  0.41859046  0.12159229  0.72305504  1.0
  Ti  Ti2731  1  0.41859046  0.26444943  0.72305504  1.0
  Ti  Ti2732  1  0.41859046  0.40730658  0.72305504  1.0
  Ti  Ti2733  1  0.41859046  0.55016372  0.72305504  1.0
  Ti  Ti2734  1  0.41859046  0.69302086  0.72305504  1.0
  Ti  Ti2735  1  0.41859046  0.83587800  0.72305504  1.0
  Ti  Ti2736  1  0.41859046  0.97873515  0.72305504  1.0
  Ti  Ti2737  1  0.52970157  0.12159229  0.72305504  1.0
  Ti  Ti2738  1  0.52970157  0.26444943  0.72305504  1.0
  Ti  Ti2739  1  0.52970157  0.40730658  0.72305504  1.0
  Ti  Ti2740  1  0.52970157  0.55016372  0.72305504  1.0
  Ti  Ti2741  1  0.52970157  0.69302086  0.72305504  1.0
  Ti  Ti2742  1  0.52970157  0.83587800  0.72305504  1.0
  Ti  Ti2743  1  0.52970157  0.97873515  0.72305504  1.0
  Ti  Ti2744  1  0.64081268  0.12159229  0.72305504  1.0
  Ti  Ti2745  1  0.64081268  0.26444943  0.72305504  1.0
  Ti  Ti2746  1  0.64081268  0.40730658  0.72305504  1.0
  Ti  Ti2747  1  0.64081268  0.55016372  0.72305504  1.0
  Ti  Ti2748  1  0.64081268  0.69302086  0.72305504  1.0
  Ti  Ti2749  1  0.64081268  0.83587800  0.72305504  1.0
  Ti  Ti2750  1  0.64081268  0.97873515  0.72305504  1.0
  Ti  Ti2751  1  0.75192379  0.12159229  0.72305504  1.0
  Ti  Ti2752  1  0.75192379  0.26444943  0.72305504  1.0
  Ti  Ti2753  1  0.75192379  0.40730658  0.72305504  1.0
  Ti  Ti2754  1  0.75192379  0.55016372  0.72305504  1.0
  Ti  Ti2755  1  0.75192379  0.69302086  0.72305504  1.0
  Ti  Ti2756  1  0.75192379  0.83587800  0.72305504  1.0
  Ti  Ti2757  1  0.75192379  0.97873515  0.72305504  1.0
  Ti  Ti2758  1  0.86303490  0.12159229  0.72305504  1.0
  Ti  Ti2759  1  0.86303490  0.26444943  0.72305504  1.0
  Ti  Ti2760  1  0.86303490  0.40730658  0.72305504  1.0
  Ti  Ti2761  1  0.86303490  0.55016372  0.72305504  1.0
  Ti  Ti2762  1  0.86303490  0.69302086  0.72305504  1.0
  Ti  Ti2763  1  0.86303490  0.83587800  0.72305504  1.0
  Ti  Ti2764  1  0.86303490  0.97873515  0.72305504  1.0
  Ti  Ti2765  1  0.97414601  0.12159229  0.72305504  1.0
  Ti  Ti2766  1  0.97414601  0.26444943  0.72305504  1.0
  Ti  Ti2767  1  0.97414601  0.40730658  0.72305504  1.0
  Ti  Ti2768  1  0.97414601  0.55016372  0.72305504  1.0
  Ti  Ti2769  1  0.97414601  0.69302086  0.72305504  1.0
  Ti  Ti2770  1  0.97414601  0.83587800  0.72305504  1.0
  Ti  Ti2771  1  0.97414601  0.97873515  0.72305504  1.0
  Ti  Ti2772  1  0.10642114  0.13519773  0.77067409  1.0
  Ti  Ti2773  1  0.10642114  0.27805487  0.77067409  1.0
  Ti  Ti2774  1  0.10642114  0.42091202  0.77067409  1.0
  Ti  Ti2775  1  0.10642114  0.56376916  0.77067409  1.0
  Ti  Ti2776  1  0.10642114  0.70662630  0.77067409  1.0
  Ti  Ti2777  1  0.10642114  0.84948345  0.77067409  1.0
  Ti  Ti2778  1  0.10642114  0.99234059  0.77067409  1.0
  Ti  Ti2779  1  0.21753225  0.13519773  0.77067409  1.0
  Ti  Ti2780  1  0.21753225  0.27805487  0.77067409  1.0
  Ti  Ti2781  1  0.21753225  0.42091202  0.77067409  1.0
  Ti  Ti2782  1  0.21753225  0.56376916  0.77067409  1.0
  Ti  Ti2783  1  0.21753225  0.70662630  0.77067409  1.0
  Ti  Ti2784  1  0.21753225  0.84948345  0.77067409  1.0
  Ti  Ti2785  1  0.21753225  0.99234059  0.77067409  1.0
  Ti  Ti2786  1  0.32864337  0.13519773  0.77067409  1.0
  Ti  Ti2787  1  0.32864337  0.27805487  0.77067409  1.0
  Ti  Ti2788  1  0.32864337  0.42091202  0.77067409  1.0
  Ti  Ti2789  1  0.32864337  0.56376916  0.77067409  1.0
  Ti  Ti2790  1  0.32864337  0.70662630  0.77067409  1.0
  Ti  Ti2791  1  0.32864337  0.84948345  0.77067409  1.0
  Ti  Ti2792  1  0.32864337  0.99234059  0.77067409  1.0
  Ti  Ti2793  1  0.43975448  0.13519773  0.77067409  1.0
  Ti  Ti2794  1  0.43975448  0.27805487  0.77067409  1.0
  Ti  Ti2795  1  0.43975448  0.42091202  0.77067409  1.0
  Ti  Ti2796  1  0.43975448  0.56376916  0.77067409  1.0
  Ti  Ti2797  1  0.43975448  0.70662630  0.77067409  1.0
  Ti  Ti2798  1  0.43975448  0.84948345  0.77067409  1.0
  Ti  Ti2799  1  0.43975448  0.99234059  0.77067409  1.0
  Ti  Ti2800  1  0.55086559  0.13519773  0.77067409  1.0
  Ti  Ti2801  1  0.55086559  0.27805487  0.77067409  1.0
  Ti  Ti2802  1  0.55086559  0.42091202  0.77067409  1.0
  Ti  Ti2803  1  0.55086559  0.56376916  0.77067409  1.0
  Ti  Ti2804  1  0.55086559  0.70662630  0.77067409  1.0
  Ti  Ti2805  1  0.55086559  0.84948345  0.77067409  1.0
  Ti  Ti2806  1  0.55086559  0.99234059  0.77067409  1.0
  Ti  Ti2807  1  0.66197670  0.13519773  0.77067409  1.0
  Ti  Ti2808  1  0.66197670  0.27805487  0.77067409  1.0
  Ti  Ti2809  1  0.66197670  0.42091202  0.77067409  1.0
  Ti  Ti2810  1  0.66197670  0.56376916  0.77067409  1.0
  Ti  Ti2811  1  0.66197670  0.70662630  0.77067409  1.0
  Ti  Ti2812  1  0.66197670  0.84948345  0.77067409  1.0
  Ti  Ti2813  1  0.66197670  0.99234059  0.77067409  1.0
  Ti  Ti2814  1  0.77308781  0.13519773  0.77067409  1.0
  Ti  Ti2815  1  0.77308781  0.27805487  0.77067409  1.0
  Ti  Ti2816  1  0.77308781  0.42091202  0.77067409  1.0
  Ti  Ti2817  1  0.77308781  0.56376916  0.77067409  1.0
  Ti  Ti2818  1  0.77308781  0.70662630  0.77067409  1.0
  Ti  Ti2819  1  0.77308781  0.84948345  0.77067409  1.0
  Ti  Ti2820  1  0.77308781  0.99234059  0.77067409  1.0
  Ti  Ti2821  1  0.88419892  0.13519773  0.77067409  1.0
  Ti  Ti2822  1  0.88419892  0.27805487  0.77067409  1.0
  Ti  Ti2823  1  0.88419892  0.42091202  0.77067409  1.0
  Ti  Ti2824  1  0.88419892  0.56376916  0.77067409  1.0
  Ti  Ti2825  1  0.88419892  0.70662630  0.77067409  1.0
  Ti  Ti2826  1  0.88419892  0.84948345  0.77067409  1.0
  Ti  Ti2827  1  0.88419892  0.99234059  0.77067409  1.0
  Ti  Ti2828  1  0.99531003  0.13519773  0.77067409  1.0
  Ti  Ti2829  1  0.99531003  0.27805487  0.77067409  1.0
  Ti  Ti2830  1  0.99531003  0.42091202  0.77067409  1.0
  Ti  Ti2831  1  0.99531003  0.56376916  0.77067409  1.0
  Ti  Ti2832  1  0.99531003  0.70662630  0.77067409  1.0
  Ti  Ti2833  1  0.99531003  0.84948345  0.77067409  1.0
  Ti  Ti2834  1  0.99531003  0.99234059  0.77067409  1.0
  Ti  Ti2835  1  0.04701801  0.03487030  0.75313544  1.0
  Ti  Ti2836  1  0.04701801  0.17772744  0.75313544  1.0
  Ti  Ti2837  1  0.04701801  0.32058458  0.75313544  1.0
  Ti  Ti2838  1  0.04701801  0.46344172  0.75313544  1.0
  Ti  Ti2839  1  0.04701801  0.60629887  0.75313544  1.0
  Ti  Ti2840  1  0.04701801  0.74915601  0.75313544  1.0
  Ti  Ti2841  1  0.04701801  0.89201315  0.75313544  1.0
  Ti  Ti2842  1  0.15812912  0.03487030  0.75313544  1.0
  Ti  Ti2843  1  0.15812912  0.17772744  0.75313544  1.0
  Ti  Ti2844  1  0.15812912  0.32058458  0.75313544  1.0
  Ti  Ti2845  1  0.15812912  0.46344172  0.75313544  1.0
  Ti  Ti2846  1  0.15812912  0.60629887  0.75313544  1.0
  Ti  Ti2847  1  0.15812912  0.74915601  0.75313544  1.0
  Ti  Ti2848  1  0.15812912  0.89201315  0.75313544  1.0
  Ti  Ti2849  1  0.26924023  0.03487030  0.75313544  1.0
  Ti  Ti2850  1  0.26924023  0.17772744  0.75313544  1.0
  Ti  Ti2851  1  0.26924023  0.32058458  0.75313544  1.0
  Ti  Ti2852  1  0.26924023  0.46344172  0.75313544  1.0
  Ti  Ti2853  1  0.26924023  0.60629887  0.75313544  1.0
  Ti  Ti2854  1  0.26924023  0.74915601  0.75313544  1.0
  Ti  Ti2855  1  0.26924023  0.89201315  0.75313544  1.0
  Ti  Ti2856  1  0.38035134  0.03487030  0.75313544  1.0
  Ti  Ti2857  1  0.38035134  0.17772744  0.75313544  1.0
  Ti  Ti2858  1  0.38035134  0.32058458  0.75313544  1.0
  Ti  Ti2859  1  0.38035134  0.46344172  0.75313544  1.0
  Ti  Ti2860  1  0.38035134  0.60629887  0.75313544  1.0
  Ti  Ti2861  1  0.38035134  0.74915601  0.75313544  1.0
  Ti  Ti2862  1  0.38035134  0.89201315  0.75313544  1.0
  Ti  Ti2863  1  0.49146245  0.03487030  0.75313544  1.0
  Ti  Ti2864  1  0.49146245  0.17772744  0.75313544  1.0
  Ti  Ti2865  1  0.49146245  0.32058458  0.75313544  1.0
  Ti  Ti2866  1  0.49146245  0.46344172  0.75313544  1.0
  Ti  Ti2867  1  0.49146245  0.60629887  0.75313544  1.0
  Ti  Ti2868  1  0.49146245  0.74915601  0.75313544  1.0
  Ti  Ti2869  1  0.49146245  0.89201315  0.75313544  1.0
  Ti  Ti2870  1  0.60257357  0.03487030  0.75313544  1.0
  Ti  Ti2871  1  0.60257357  0.17772744  0.75313544  1.0
  Ti  Ti2872  1  0.60257357  0.32058458  0.75313544  1.0
  Ti  Ti2873  1  0.60257357  0.46344172  0.75313544  1.0
  Ti  Ti2874  1  0.60257357  0.60629887  0.75313544  1.0
  Ti  Ti2875  1  0.60257357  0.74915601  0.75313544  1.0
  Ti  Ti2876  1  0.60257357  0.89201315  0.75313544  1.0
  Ti  Ti2877  1  0.71368468  0.03487030  0.75313544  1.0
  Ti  Ti2878  1  0.71368468  0.17772744  0.75313544  1.0
  Ti  Ti2879  1  0.71368468  0.32058458  0.75313544  1.0
  Ti  Ti2880  1  0.71368468  0.46344172  0.75313544  1.0
  Ti  Ti2881  1  0.71368468  0.60629887  0.75313544  1.0
  Ti  Ti2882  1  0.71368468  0.74915601  0.75313544  1.0
  Ti  Ti2883  1  0.71368468  0.89201315  0.75313544  1.0
  Ti  Ti2884  1  0.82479579  0.03487030  0.75313544  1.0
  Ti  Ti2885  1  0.82479579  0.17772744  0.75313544  1.0
  Ti  Ti2886  1  0.82479579  0.32058458  0.75313544  1.0
  Ti  Ti2887  1  0.82479579  0.46344172  0.75313544  1.0
  Ti  Ti2888  1  0.82479579  0.60629887  0.75313544  1.0
  Ti  Ti2889  1  0.82479579  0.74915601  0.75313544  1.0
  Ti  Ti2890  1  0.82479579  0.89201315  0.75313544  1.0
  Ti  Ti2891  1  0.93590690  0.03487030  0.75313544  1.0
  Ti  Ti2892  1  0.93590690  0.17772744  0.75313544  1.0
  Ti  Ti2893  1  0.93590690  0.32058458  0.75313544  1.0
  Ti  Ti2894  1  0.93590690  0.46344172  0.75313544  1.0
  Ti  Ti2895  1  0.93590690  0.60629887  0.75313544  1.0
  Ti  Ti2896  1  0.93590690  0.74915601  0.75313544  1.0
  Ti  Ti2897  1  0.93590690  0.89201315  0.75313544  1.0
  Ti  Ti2898  1  0.00468997  0.00765941  0.65789734  1.0
  Ti  Ti2899  1  0.00468997  0.15051655  0.65789734  1.0
  Ti  Ti2900  1  0.00468997  0.29337370  0.65789734  1.0
  Ti  Ti2901  1  0.00468997  0.43623084  0.65789734  1.0
  Ti  Ti2902  1  0.00468997  0.57908798  0.65789734  1.0
  Ti  Ti2903  1  0.00468997  0.72194513  0.65789734  1.0
  Ti  Ti2904  1  0.00468997  0.86480227  0.65789734  1.0
  Ti  Ti2905  1  0.11580108  0.00765941  0.65789734  1.0
  Ti  Ti2906  1  0.11580108  0.15051655  0.65789734  1.0
  Ti  Ti2907  1  0.11580108  0.29337370  0.65789734  1.0
  Ti  Ti2908  1  0.11580108  0.43623084  0.65789734  1.0
  Ti  Ti2909  1  0.11580108  0.57908798  0.65789734  1.0
  Ti  Ti2910  1  0.11580108  0.72194513  0.65789734  1.0
  Ti  Ti2911  1  0.11580108  0.86480227  0.65789734  1.0
  Ti  Ti2912  1  0.22691219  0.00765941  0.65789734  1.0
  Ti  Ti2913  1  0.22691219  0.15051655  0.65789734  1.0
  Ti  Ti2914  1  0.22691219  0.29337370  0.65789734  1.0
  Ti  Ti2915  1  0.22691219  0.43623084  0.65789734  1.0
  Ti  Ti2916  1  0.22691219  0.57908798  0.65789734  1.0
  Ti  Ti2917  1  0.22691219  0.72194513  0.65789734  1.0
  Ti  Ti2918  1  0.22691219  0.86480227  0.65789734  1.0
  Ti  Ti2919  1  0.33802330  0.00765941  0.65789734  1.0
  Ti  Ti2920  1  0.33802330  0.15051655  0.65789734  1.0
  Ti  Ti2921  1  0.33802330  0.29337370  0.65789734  1.0
  Ti  Ti2922  1  0.33802330  0.43623084  0.65789734  1.0
  Ti  Ti2923  1  0.33802330  0.57908798  0.65789734  1.0
  Ti  Ti2924  1  0.33802330  0.72194513  0.65789734  1.0
  Ti  Ti2925  1  0.33802330  0.86480227  0.65789734  1.0
  Ti  Ti2926  1  0.44913441  0.00765941  0.65789734  1.0
  Ti  Ti2927  1  0.44913441  0.15051655  0.65789734  1.0
  Ti  Ti2928  1  0.44913441  0.29337370  0.65789734  1.0
  Ti  Ti2929  1  0.44913441  0.43623084  0.65789734  1.0
  Ti  Ti2930  1  0.44913441  0.57908798  0.65789734  1.0
  Ti  Ti2931  1  0.44913441  0.72194513  0.65789734  1.0
  Ti  Ti2932  1  0.44913441  0.86480227  0.65789734  1.0
  Ti  Ti2933  1  0.56024552  0.00765941  0.65789734  1.0
  Ti  Ti2934  1  0.56024552  0.15051655  0.65789734  1.0
  Ti  Ti2935  1  0.56024552  0.29337370  0.65789734  1.0
  Ti  Ti2936  1  0.56024552  0.43623084  0.65789734  1.0
  Ti  Ti2937  1  0.56024552  0.57908798  0.65789734  1.0
  Ti  Ti2938  1  0.56024552  0.72194513  0.65789734  1.0
  Ti  Ti2939  1  0.56024552  0.86480227  0.65789734  1.0
  Ti  Ti2940  1  0.67135663  0.00765941  0.65789734  1.0
  Ti  Ti2941  1  0.67135663  0.15051655  0.65789734  1.0
  Ti  Ti2942  1  0.67135663  0.29337370  0.65789734  1.0
  Ti  Ti2943  1  0.67135663  0.43623084  0.65789734  1.0
  Ti  Ti2944  1  0.67135663  0.57908798  0.65789734  1.0
  Ti  Ti2945  1  0.67135663  0.72194513  0.65789734  1.0
  Ti  Ti2946  1  0.67135663  0.86480227  0.65789734  1.0
  Ti  Ti2947  1  0.78246775  0.00765941  0.65789734  1.0
  Ti  Ti2948  1  0.78246775  0.15051655  0.65789734  1.0
  Ti  Ti2949  1  0.78246775  0.29337370  0.65789734  1.0
  Ti  Ti2950  1  0.78246775  0.43623084  0.65789734  1.0
  Ti  Ti2951  1  0.78246775  0.57908798  0.65789734  1.0
  Ti  Ti2952  1  0.78246775  0.72194513  0.65789734  1.0
  Ti  Ti2953  1  0.78246775  0.86480227  0.65789734  1.0
  Ti  Ti2954  1  0.89357886  0.00765941  0.65789734  1.0
  Ti  Ti2955  1  0.89357886  0.15051655  0.65789734  1.0
  Ti  Ti2956  1  0.89357886  0.29337370  0.65789734  1.0
  Ti  Ti2957  1  0.89357886  0.43623084  0.65789734  1.0
  Ti  Ti2958  1  0.89357886  0.57908798  0.65789734  1.0
  Ti  Ti2959  1  0.89357886  0.72194513  0.65789734  1.0
  Ti  Ti2960  1  0.89357886  0.86480227  0.65789734  1.0
  Ti  Ti2961  1  0.02585399  0.02126485  0.70551639  1.0
  Ti  Ti2962  1  0.02585399  0.16412200  0.70551639  1.0
  Ti  Ti2963  1  0.02585399  0.30697914  0.70551639  1.0
  Ti  Ti2964  1  0.02585399  0.44983628  0.70551639  1.0
  Ti  Ti2965  1  0.02585399  0.59269342  0.70551639  1.0
  Ti  Ti2966  1  0.02585399  0.73555057  0.70551639  1.0
  Ti  Ti2967  1  0.02585399  0.87840771  0.70551639  1.0
  Ti  Ti2968  1  0.13696510  0.02126485  0.70551639  1.0
  Ti  Ti2969  1  0.13696510  0.16412200  0.70551639  1.0
  Ti  Ti2970  1  0.13696510  0.30697914  0.70551639  1.0
  Ti  Ti2971  1  0.13696510  0.44983628  0.70551639  1.0
  Ti  Ti2972  1  0.13696510  0.59269342  0.70551639  1.0
  Ti  Ti2973  1  0.13696510  0.73555057  0.70551639  1.0
  Ti  Ti2974  1  0.13696510  0.87840771  0.70551639  1.0
  Ti  Ti2975  1  0.24807621  0.02126485  0.70551639  1.0
  Ti  Ti2976  1  0.24807621  0.16412200  0.70551639  1.0
  Ti  Ti2977  1  0.24807621  0.30697914  0.70551639  1.0
  Ti  Ti2978  1  0.24807621  0.44983628  0.70551639  1.0
  Ti  Ti2979  1  0.24807621  0.59269342  0.70551639  1.0
  Ti  Ti2980  1  0.24807621  0.73555057  0.70551639  1.0
  Ti  Ti2981  1  0.24807621  0.87840771  0.70551639  1.0
  Ti  Ti2982  1  0.35918732  0.02126485  0.70551639  1.0
  Ti  Ti2983  1  0.35918732  0.16412200  0.70551639  1.0
  Ti  Ti2984  1  0.35918732  0.30697914  0.70551639  1.0
  Ti  Ti2985  1  0.35918732  0.44983628  0.70551639  1.0
  Ti  Ti2986  1  0.35918732  0.59269342  0.70551639  1.0
  Ti  Ti2987  1  0.35918732  0.73555057  0.70551639  1.0
  Ti  Ti2988  1  0.35918732  0.87840771  0.70551639  1.0
  Ti  Ti2989  1  0.47029843  0.02126485  0.70551639  1.0
  Ti  Ti2990  1  0.47029843  0.16412200  0.70551639  1.0
  Ti  Ti2991  1  0.47029843  0.30697914  0.70551639  1.0
  Ti  Ti2992  1  0.47029843  0.44983628  0.70551639  1.0
  Ti  Ti2993  1  0.47029843  0.59269342  0.70551639  1.0
  Ti  Ti2994  1  0.47029843  0.73555057  0.70551639  1.0
  Ti  Ti2995  1  0.47029843  0.87840771  0.70551639  1.0
  Ti  Ti2996  1  0.58140954  0.02126485  0.70551639  1.0
  Ti  Ti2997  1  0.58140954  0.16412200  0.70551639  1.0
  Ti  Ti2998  1  0.58140954  0.30697914  0.70551639  1.0
  Ti  Ti2999  1  0.58140954  0.44983628  0.70551639  1.0
  Ti  Ti3000  1  0.58140954  0.59269342  0.70551639  1.0
  Ti  Ti3001  1  0.58140954  0.73555057  0.70551639  1.0
  Ti  Ti3002  1  0.58140954  0.87840771  0.70551639  1.0
  Ti  Ti3003  1  0.69252066  0.02126485  0.70551639  1.0
  Ti  Ti3004  1  0.69252066  0.16412200  0.70551639  1.0
  Ti  Ti3005  1  0.69252066  0.30697914  0.70551639  1.0
  Ti  Ti3006  1  0.69252066  0.44983628  0.70551639  1.0
  Ti  Ti3007  1  0.69252066  0.59269342  0.70551639  1.0
  Ti  Ti3008  1  0.69252066  0.73555057  0.70551639  1.0
  Ti  Ti3009  1  0.69252066  0.87840771  0.70551639  1.0
  Ti  Ti3010  1  0.80363177  0.02126485  0.70551639  1.0
  Ti  Ti3011  1  0.80363177  0.16412200  0.70551639  1.0
  Ti  Ti3012  1  0.80363177  0.30697914  0.70551639  1.0
  Ti  Ti3013  1  0.80363177  0.44983628  0.70551639  1.0
  Ti  Ti3014  1  0.80363177  0.59269342  0.70551639  1.0
  Ti  Ti3015  1  0.80363177  0.73555057  0.70551639  1.0
  Ti  Ti3016  1  0.80363177  0.87840771  0.70551639  1.0
  Ti  Ti3017  1  0.91474288  0.02126485  0.70551639  1.0
  Ti  Ti3018  1  0.91474288  0.16412200  0.70551639  1.0
  Ti  Ti3019  1  0.91474288  0.30697914  0.70551639  1.0
  Ti  Ti3020  1  0.91474288  0.44983628  0.70551639  1.0
  Ti  Ti3021  1  0.91474288  0.59269342  0.70551639  1.0
  Ti  Ti3022  1  0.91474288  0.73555057  0.70551639  1.0
  Ti  Ti3023  1  0.91474288  0.87840771  0.70551639  1.0
  P  P3024  1  0.09759868  0.04031809  0.28691139  1.0
  P  P3025  1  0.09759868  0.18317524  0.28691139  1.0
  P  P3026  1  0.09759868  0.32603238  0.28691139  1.0
  P  P3027  1  0.09759868  0.46888952  0.28691139  1.0
  P  P3028  1  0.09759868  0.61174666  0.28691139  1.0
  P  P3029  1  0.09759868  0.75460381  0.28691139  1.0
  P  P3030  1  0.09759868  0.89746095  0.28691139  1.0
  P  P3031  1  0.20870980  0.04031809  0.28691139  1.0
  P  P3032  1  0.20870980  0.18317524  0.28691139  1.0
  P  P3033  1  0.20870980  0.32603238  0.28691139  1.0
  P  P3034  1  0.20870980  0.46888952  0.28691139  1.0
  P  P3035  1  0.20870980  0.61174666  0.28691139  1.0
  P  P3036  1  0.20870980  0.75460381  0.28691139  1.0
  P  P3037  1  0.20870980  0.89746095  0.28691139  1.0
  P  P3038  1  0.31982091  0.04031809  0.28691139  1.0
  P  P3039  1  0.31982091  0.18317524  0.28691139  1.0
  P  P3040  1  0.31982091  0.32603238  0.28691139  1.0
  P  P3041  1  0.31982091  0.46888952  0.28691139  1.0
  P  P3042  1  0.31982091  0.61174666  0.28691139  1.0
  P  P3043  1  0.31982091  0.75460381  0.28691139  1.0
  P  P3044  1  0.31982091  0.89746095  0.28691139  1.0
  P  P3045  1  0.43093202  0.04031809  0.28691139  1.0
  P  P3046  1  0.43093202  0.18317524  0.28691139  1.0
  P  P3047  1  0.43093202  0.32603238  0.28691139  1.0
  P  P3048  1  0.43093202  0.46888952  0.28691139  1.0
  P  P3049  1  0.43093202  0.61174666  0.28691139  1.0
  P  P3050  1  0.43093202  0.75460381  0.28691139  1.0
  P  P3051  1  0.43093202  0.89746095  0.28691139  1.0
  P  P3052  1  0.54204313  0.04031809  0.28691139  1.0
  P  P3053  1  0.54204313  0.18317524  0.28691139  1.0
  P  P3054  1  0.54204313  0.32603238  0.28691139  1.0
  P  P3055  1  0.54204313  0.46888952  0.28691139  1.0
  P  P3056  1  0.54204313  0.61174666  0.28691139  1.0
  P  P3057  1  0.54204313  0.75460381  0.28691139  1.0
  P  P3058  1  0.54204313  0.89746095  0.28691139  1.0
  P  P3059  1  0.65315424  0.04031809  0.28691139  1.0
  P  P3060  1  0.65315424  0.18317524  0.28691139  1.0
  P  P3061  1  0.65315424  0.32603238  0.28691139  1.0
  P  P3062  1  0.65315424  0.46888952  0.28691139  1.0
  P  P3063  1  0.65315424  0.61174666  0.28691139  1.0
  P  P3064  1  0.65315424  0.75460381  0.28691139  1.0
  P  P3065  1  0.65315424  0.89746095  0.28691139  1.0
  P  P3066  1  0.76426535  0.04031809  0.28691139  1.0
  P  P3067  1  0.76426535  0.18317524  0.28691139  1.0
  P  P3068  1  0.76426535  0.32603238  0.28691139  1.0
  P  P3069  1  0.76426535  0.46888952  0.28691139  1.0
  P  P3070  1  0.76426535  0.61174666  0.28691139  1.0
  P  P3071  1  0.76426535  0.75460381  0.28691139  1.0
  P  P3072  1  0.76426535  0.89746095  0.28691139  1.0
  P  P3073  1  0.87537646  0.04031809  0.28691139  1.0
  P  P3074  1  0.87537646  0.18317524  0.28691139  1.0
  P  P3075  1  0.87537646  0.32603238  0.28691139  1.0
  P  P3076  1  0.87537646  0.46888952  0.28691139  1.0
  P  P3077  1  0.87537646  0.61174666  0.28691139  1.0
  P  P3078  1  0.87537646  0.75460381  0.28691139  1.0
  P  P3079  1  0.87537646  0.89746095  0.28691139  1.0
  P  P3080  1  0.98648757  0.04031809  0.28691139  1.0
  P  P3081  1  0.98648757  0.18317524  0.28691139  1.0
  P  P3082  1  0.98648757  0.32603238  0.28691139  1.0
  P  P3083  1  0.98648757  0.46888952  0.28691139  1.0
  P  P3084  1  0.98648757  0.61174666  0.28691139  1.0
  P  P3085  1  0.98648757  0.75460381  0.28691139  1.0
  P  P3086  1  0.98648757  0.89746095  0.28691139  1.0
  P  P3087  1  0.00765159  0.05392353  0.33453044  1.0
  P  P3088  1  0.00765159  0.19678068  0.33453044  1.0
  P  P3089  1  0.00765159  0.33963782  0.33453044  1.0
  P  P3090  1  0.00765159  0.48249496  0.33453044  1.0
  P  P3091  1  0.00765159  0.62535211  0.33453044  1.0
  P  P3092  1  0.00765159  0.76820925  0.33453044  1.0
  P  P3093  1  0.00765159  0.91106639  0.33453044  1.0
  P  P3094  1  0.11876271  0.05392353  0.33453044  1.0
  P  P3095  1  0.11876271  0.19678068  0.33453044  1.0
  P  P3096  1  0.11876271  0.33963782  0.33453044  1.0
  P  P3097  1  0.11876271  0.48249496  0.33453044  1.0
  P  P3098  1  0.11876271  0.62535211  0.33453044  1.0
  P  P3099  1  0.11876271  0.76820925  0.33453044  1.0
  P  P3100  1  0.11876271  0.91106639  0.33453044  1.0
  P  P3101  1  0.22987382  0.05392353  0.33453044  1.0
  P  P3102  1  0.22987382  0.19678068  0.33453044  1.0
  P  P3103  1  0.22987382  0.33963782  0.33453044  1.0
  P  P3104  1  0.22987382  0.48249496  0.33453044  1.0
  P  P3105  1  0.22987382  0.62535211  0.33453044  1.0
  P  P3106  1  0.22987382  0.76820925  0.33453044  1.0
  P  P3107  1  0.22987382  0.91106639  0.33453044  1.0
  P  P3108  1  0.34098493  0.05392353  0.33453044  1.0
  P  P3109  1  0.34098493  0.19678068  0.33453044  1.0
  P  P3110  1  0.34098493  0.33963782  0.33453044  1.0
  P  P3111  1  0.34098493  0.48249496  0.33453044  1.0
  P  P3112  1  0.34098493  0.62535211  0.33453044  1.0
  P  P3113  1  0.34098493  0.76820925  0.33453044  1.0
  P  P3114  1  0.34098493  0.91106639  0.33453044  1.0
  P  P3115  1  0.45209604  0.05392353  0.33453044  1.0
  P  P3116  1  0.45209604  0.19678068  0.33453044  1.0
  P  P3117  1  0.45209604  0.33963782  0.33453044  1.0
  P  P3118  1  0.45209604  0.48249496  0.33453044  1.0
  P  P3119  1  0.45209604  0.62535211  0.33453044  1.0
  P  P3120  1  0.45209604  0.76820925  0.33453044  1.0
  P  P3121  1  0.45209604  0.91106639  0.33453044  1.0
  P  P3122  1  0.56320715  0.05392353  0.33453044  1.0
  P  P3123  1  0.56320715  0.19678068  0.33453044  1.0
  P  P3124  1  0.56320715  0.33963782  0.33453044  1.0
  P  P3125  1  0.56320715  0.48249496  0.33453044  1.0
  P  P3126  1  0.56320715  0.62535211  0.33453044  1.0
  P  P3127  1  0.56320715  0.76820925  0.33453044  1.0
  P  P3128  1  0.56320715  0.91106639  0.33453044  1.0
  P  P3129  1  0.67431826  0.05392353  0.33453044  1.0
  P  P3130  1  0.67431826  0.19678068  0.33453044  1.0
  P  P3131  1  0.67431826  0.33963782  0.33453044  1.0
  P  P3132  1  0.67431826  0.48249496  0.33453044  1.0
  P  P3133  1  0.67431826  0.62535211  0.33453044  1.0
  P  P3134  1  0.67431826  0.76820925  0.33453044  1.0
  P  P3135  1  0.67431826  0.91106639  0.33453044  1.0
  P  P3136  1  0.78542937  0.05392353  0.33453044  1.0
  P  P3137  1  0.78542937  0.19678068  0.33453044  1.0
  P  P3138  1  0.78542937  0.33963782  0.33453044  1.0
  P  P3139  1  0.78542937  0.48249496  0.33453044  1.0
  P  P3140  1  0.78542937  0.62535211  0.33453044  1.0
  P  P3141  1  0.78542937  0.76820925  0.33453044  1.0
  P  P3142  1  0.78542937  0.91106639  0.33453044  1.0
  P  P3143  1  0.89654048  0.05392353  0.33453044  1.0
  P  P3144  1  0.89654048  0.19678068  0.33453044  1.0
  P  P3145  1  0.89654048  0.33963782  0.33453044  1.0
  P  P3146  1  0.89654048  0.48249496  0.33453044  1.0
  P  P3147  1  0.89654048  0.62535211  0.33453044  1.0
  P  P3148  1  0.89654048  0.76820925  0.33453044  1.0
  P  P3149  1  0.89654048  0.91106639  0.33453044  1.0
  P  P3150  1  0.07643466  0.02671265  0.23929235  1.0
  P  P3151  1  0.07643466  0.16956979  0.23929235  1.0
  P  P3152  1  0.07643466  0.31242694  0.23929235  1.0
  P  P3153  1  0.07643466  0.45528408  0.23929235  1.0
  P  P3154  1  0.07643466  0.59814122  0.23929235  1.0
  P  P3155  1  0.07643466  0.74099836  0.23929235  1.0
  P  P3156  1  0.07643466  0.88385551  0.23929235  1.0
  P  P3157  1  0.18754577  0.02671265  0.23929235  1.0
  P  P3158  1  0.18754577  0.16956979  0.23929235  1.0
  P  P3159  1  0.18754577  0.31242694  0.23929235  1.0
  P  P3160  1  0.18754577  0.45528408  0.23929235  1.0
  P  P3161  1  0.18754577  0.59814122  0.23929235  1.0
  P  P3162  1  0.18754577  0.74099836  0.23929235  1.0
  P  P3163  1  0.18754577  0.88385551  0.23929235  1.0
  P  P3164  1  0.29865689  0.02671265  0.23929235  1.0
  P  P3165  1  0.29865689  0.16956979  0.23929235  1.0
  P  P3166  1  0.29865689  0.31242694  0.23929235  1.0
  P  P3167  1  0.29865689  0.45528408  0.23929235  1.0
  P  P3168  1  0.29865689  0.59814122  0.23929235  1.0
  P  P3169  1  0.29865689  0.74099836  0.23929235  1.0
  P  P3170  1  0.29865689  0.88385551  0.23929235  1.0
  P  P3171  1  0.40976800  0.02671265  0.23929235  1.0
  P  P3172  1  0.40976800  0.16956979  0.23929235  1.0
  P  P3173  1  0.40976800  0.31242694  0.23929235  1.0
  P  P3174  1  0.40976800  0.45528408  0.23929235  1.0
  P  P3175  1  0.40976800  0.59814122  0.23929235  1.0
  P  P3176  1  0.40976800  0.74099836  0.23929235  1.0
  P  P3177  1  0.40976800  0.88385551  0.23929235  1.0
  P  P3178  1  0.52087911  0.02671265  0.23929235  1.0
  P  P3179  1  0.52087911  0.16956979  0.23929235  1.0
  P  P3180  1  0.52087911  0.31242694  0.23929235  1.0
  P  P3181  1  0.52087911  0.45528408  0.23929235  1.0
  P  P3182  1  0.52087911  0.59814122  0.23929235  1.0
  P  P3183  1  0.52087911  0.74099836  0.23929235  1.0
  P  P3184  1  0.52087911  0.88385551  0.23929235  1.0
  P  P3185  1  0.63199022  0.02671265  0.23929235  1.0
  P  P3186  1  0.63199022  0.16956979  0.23929235  1.0
  P  P3187  1  0.63199022  0.31242694  0.23929235  1.0
  P  P3188  1  0.63199022  0.45528408  0.23929235  1.0
  P  P3189  1  0.63199022  0.59814122  0.23929235  1.0
  P  P3190  1  0.63199022  0.74099836  0.23929235  1.0
  P  P3191  1  0.63199022  0.88385551  0.23929235  1.0
  P  P3192  1  0.74310133  0.02671265  0.23929235  1.0
  P  P3193  1  0.74310133  0.16956979  0.23929235  1.0
  P  P3194  1  0.74310133  0.31242694  0.23929235  1.0
  P  P3195  1  0.74310133  0.45528408  0.23929235  1.0
  P  P3196  1  0.74310133  0.59814122  0.23929235  1.0
  P  P3197  1  0.74310133  0.74099836  0.23929235  1.0
  P  P3198  1  0.74310133  0.88385551  0.23929235  1.0
  P  P3199  1  0.85421244  0.02671265  0.23929235  1.0
  P  P3200  1  0.85421244  0.16956979  0.23929235  1.0
  P  P3201  1  0.85421244  0.31242694  0.23929235  1.0
  P  P3202  1  0.85421244  0.45528408  0.23929235  1.0
  P  P3203  1  0.85421244  0.59814122  0.23929235  1.0
  P  P3204  1  0.85421244  0.74099836  0.23929235  1.0
  P  P3205  1  0.85421244  0.88385551  0.23929235  1.0
  P  P3206  1  0.96532355  0.02671265  0.23929235  1.0
  P  P3207  1  0.96532355  0.16956979  0.23929235  1.0
  P  P3208  1  0.96532355  0.31242694  0.23929235  1.0
  P  P3209  1  0.96532355  0.45528408  0.23929235  1.0
  P  P3210  1  0.96532355  0.59814122  0.23929235  1.0
  P  P3211  1  0.96532355  0.74099836  0.23929235  1.0
  P  P3212  1  0.96532355  0.88385551  0.23929235  1.0
  P  P3213  1  0.07700449  0.00049823  0.28451718  1.0
  P  P3214  1  0.07700449  0.14335538  0.28451718  1.0
  P  P3215  1  0.07700449  0.28621252  0.28451718  1.0
  P  P3216  1  0.07700449  0.42906966  0.28451718  1.0
  P  P3217  1  0.07700449  0.57192681  0.28451718  1.0
  P  P3218  1  0.07700449  0.71478395  0.28451718  1.0
  P  P3219  1  0.07700449  0.85764109  0.28451718  1.0
  P  P3220  1  0.18811560  0.00049823  0.28451718  1.0
  P  P3221  1  0.18811560  0.14335538  0.28451718  1.0
  P  P3222  1  0.18811560  0.28621252  0.28451718  1.0
  P  P3223  1  0.18811560  0.42906966  0.28451718  1.0
  P  P3224  1  0.18811560  0.57192681  0.28451718  1.0
  P  P3225  1  0.18811560  0.71478395  0.28451718  1.0
  P  P3226  1  0.18811560  0.85764109  0.28451718  1.0
  P  P3227  1  0.29922671  0.00049823  0.28451718  1.0
  P  P3228  1  0.29922671  0.14335538  0.28451718  1.0
  P  P3229  1  0.29922671  0.28621252  0.28451718  1.0
  P  P3230  1  0.29922671  0.42906966  0.28451718  1.0
  P  P3231  1  0.29922671  0.57192681  0.28451718  1.0
  P  P3232  1  0.29922671  0.71478395  0.28451718  1.0
  P  P3233  1  0.29922671  0.85764109  0.28451718  1.0
  P  P3234  1  0.41033782  0.00049823  0.28451718  1.0
  P  P3235  1  0.41033782  0.14335538  0.28451718  1.0
  P  P3236  1  0.41033782  0.28621252  0.28451718  1.0
  P  P3237  1  0.41033782  0.42906966  0.28451718  1.0
  P  P3238  1  0.41033782  0.57192681  0.28451718  1.0
  P  P3239  1  0.41033782  0.71478395  0.28451718  1.0
  P  P3240  1  0.41033782  0.85764109  0.28451718  1.0
  P  P3241  1  0.52144893  0.00049823  0.28451718  1.0
  P  P3242  1  0.52144893  0.14335538  0.28451718  1.0
  P  P3243  1  0.52144893  0.28621252  0.28451718  1.0
  P  P3244  1  0.52144893  0.42906966  0.28451718  1.0
  P  P3245  1  0.52144893  0.57192681  0.28451718  1.0
  P  P3246  1  0.52144893  0.71478395  0.28451718  1.0
  P  P3247  1  0.52144893  0.85764109  0.28451718  1.0
  P  P3248  1  0.63256005  0.00049823  0.28451718  1.0
  P  P3249  1  0.63256005  0.14335538  0.28451718  1.0
  P  P3250  1  0.63256005  0.28621252  0.28451718  1.0
  P  P3251  1  0.63256005  0.42906966  0.28451718  1.0
  P  P3252  1  0.63256005  0.57192681  0.28451718  1.0
  P  P3253  1  0.63256005  0.71478395  0.28451718  1.0
  P  P3254  1  0.63256005  0.85764109  0.28451718  1.0
  P  P3255  1  0.74367116  0.00049823  0.28451718  1.0
  P  P3256  1  0.74367116  0.14335538  0.28451718  1.0
  P  P3257  1  0.74367116  0.28621252  0.28451718  1.0
  P  P3258  1  0.74367116  0.42906966  0.28451718  1.0
  P  P3259  1  0.74367116  0.57192681  0.28451718  1.0
  P  P3260  1  0.74367116  0.71478395  0.28451718  1.0
  P  P3261  1  0.74367116  0.85764109  0.28451718  1.0
  P  P3262  1  0.85478227  0.00049823  0.28451718  1.0
  P  P3263  1  0.85478227  0.14335538  0.28451718  1.0
  P  P3264  1  0.85478227  0.28621252  0.28451718  1.0
  P  P3265  1  0.85478227  0.42906966  0.28451718  1.0
  P  P3266  1  0.85478227  0.57192681  0.28451718  1.0
  P  P3267  1  0.85478227  0.71478395  0.28451718  1.0
  P  P3268  1  0.85478227  0.85764109  0.28451718  1.0
  P  P3269  1  0.96589338  0.00049823  0.28451718  1.0
  P  P3270  1  0.96589338  0.14335538  0.28451718  1.0
  P  P3271  1  0.96589338  0.28621252  0.28451718  1.0
  P  P3272  1  0.96589338  0.42906966  0.28451718  1.0
  P  P3273  1  0.96589338  0.57192681  0.28451718  1.0
  P  P3274  1  0.96589338  0.71478395  0.28451718  1.0
  P  P3275  1  0.96589338  0.85764109  0.28451718  1.0
  P  P3276  1  0.09816851  0.01410368  0.33213623  1.0
  P  P3277  1  0.09816851  0.15696082  0.33213623  1.0
  P  P3278  1  0.09816851  0.29981796  0.33213623  1.0
  P  P3279  1  0.09816851  0.44267510  0.33213623  1.0
  P  P3280  1  0.09816851  0.58553225  0.33213623  1.0
  P  P3281  1  0.09816851  0.72838939  0.33213623  1.0
  P  P3282  1  0.09816851  0.87124653  0.33213623  1.0
  P  P3283  1  0.20927962  0.01410368  0.33213623  1.0
  P  P3284  1  0.20927962  0.15696082  0.33213623  1.0
  P  P3285  1  0.20927962  0.29981796  0.33213623  1.0
  P  P3286  1  0.20927962  0.44267510  0.33213623  1.0
  P  P3287  1  0.20927962  0.58553225  0.33213623  1.0
  P  P3288  1  0.20927962  0.72838939  0.33213623  1.0
  P  P3289  1  0.20927962  0.87124653  0.33213623  1.0
  P  P3290  1  0.32039073  0.01410368  0.33213623  1.0
  P  P3291  1  0.32039073  0.15696082  0.33213623  1.0
  P  P3292  1  0.32039073  0.29981796  0.33213623  1.0
  P  P3293  1  0.32039073  0.44267510  0.33213623  1.0
  P  P3294  1  0.32039073  0.58553225  0.33213623  1.0
  P  P3295  1  0.32039073  0.72838939  0.33213623  1.0
  P  P3296  1  0.32039073  0.87124653  0.33213623  1.0
  P  P3297  1  0.43150184  0.01410368  0.33213623  1.0
  P  P3298  1  0.43150184  0.15696082  0.33213623  1.0
  P  P3299  1  0.43150184  0.29981796  0.33213623  1.0
  P  P3300  1  0.43150184  0.44267510  0.33213623  1.0
  P  P3301  1  0.43150184  0.58553225  0.33213623  1.0
  P  P3302  1  0.43150184  0.72838939  0.33213623  1.0
  P  P3303  1  0.43150184  0.87124653  0.33213623  1.0
  P  P3304  1  0.54261296  0.01410368  0.33213623  1.0
  P  P3305  1  0.54261296  0.15696082  0.33213623  1.0
  P  P3306  1  0.54261296  0.29981796  0.33213623  1.0
  P  P3307  1  0.54261296  0.44267510  0.33213623  1.0
  P  P3308  1  0.54261296  0.58553225  0.33213623  1.0
  P  P3309  1  0.54261296  0.72838939  0.33213623  1.0
  P  P3310  1  0.54261296  0.87124653  0.33213623  1.0
  P  P3311  1  0.65372407  0.01410368  0.33213623  1.0
  P  P3312  1  0.65372407  0.15696082  0.33213623  1.0
  P  P3313  1  0.65372407  0.29981796  0.33213623  1.0
  P  P3314  1  0.65372407  0.44267510  0.33213623  1.0
  P  P3315  1  0.65372407  0.58553225  0.33213623  1.0
  P  P3316  1  0.65372407  0.72838939  0.33213623  1.0
  P  P3317  1  0.65372407  0.87124653  0.33213623  1.0
  P  P3318  1  0.76483518  0.01410368  0.33213623  1.0
  P  P3319  1  0.76483518  0.15696082  0.33213623  1.0
  P  P3320  1  0.76483518  0.29981796  0.33213623  1.0
  P  P3321  1  0.76483518  0.44267510  0.33213623  1.0
  P  P3322  1  0.76483518  0.58553225  0.33213623  1.0
  P  P3323  1  0.76483518  0.72838939  0.33213623  1.0
  P  P3324  1  0.76483518  0.87124653  0.33213623  1.0
  P  P3325  1  0.87594629  0.01410368  0.33213623  1.0
  P  P3326  1  0.87594629  0.15696082  0.33213623  1.0
  P  P3327  1  0.87594629  0.29981796  0.33213623  1.0
  P  P3328  1  0.87594629  0.44267510  0.33213623  1.0
  P  P3329  1  0.87594629  0.58553225  0.33213623  1.0
  P  P3330  1  0.87594629  0.72838939  0.33213623  1.0
  P  P3331  1  0.87594629  0.87124653  0.33213623  1.0
  P  P3332  1  0.98705740  0.01410368  0.33213623  1.0
  P  P3333  1  0.98705740  0.15696082  0.33213623  1.0
  P  P3334  1  0.98705740  0.29981796  0.33213623  1.0
  P  P3335  1  0.98705740  0.44267510  0.33213623  1.0
  P  P3336  1  0.98705740  0.58553225  0.33213623  1.0
  P  P3337  1  0.98705740  0.72838939  0.33213623  1.0
  P  P3338  1  0.98705740  0.87124653  0.33213623  1.0
  P  P3339  1  0.05584047  0.12974993  0.23689813  1.0
  P  P3340  1  0.05584047  0.27260708  0.23689813  1.0
  P  P3341  1  0.05584047  0.41546422  0.23689813  1.0
  P  P3342  1  0.05584047  0.55832136  0.23689813  1.0
  P  P3343  1  0.05584047  0.70117851  0.23689813  1.0
  P  P3344  1  0.05584047  0.84403565  0.23689813  1.0
  P  P3345  1  0.05584047  0.98689279  0.23689813  1.0
  P  P3346  1  0.16695158  0.12974993  0.23689813  1.0
  P  P3347  1  0.16695158  0.27260708  0.23689813  1.0
  P  P3348  1  0.16695158  0.41546422  0.23689813  1.0
  P  P3349  1  0.16695158  0.55832136  0.23689813  1.0
  P  P3350  1  0.16695158  0.70117851  0.23689813  1.0
  P  P3351  1  0.16695158  0.84403565  0.23689813  1.0
  P  P3352  1  0.16695158  0.98689279  0.23689813  1.0
  P  P3353  1  0.27806269  0.12974993  0.23689813  1.0
  P  P3354  1  0.27806269  0.27260708  0.23689813  1.0
  P  P3355  1  0.27806269  0.41546422  0.23689813  1.0
  P  P3356  1  0.27806269  0.55832136  0.23689813  1.0
  P  P3357  1  0.27806269  0.70117851  0.23689813  1.0
  P  P3358  1  0.27806269  0.84403565  0.23689813  1.0
  P  P3359  1  0.27806269  0.98689279  0.23689813  1.0
  P  P3360  1  0.38917380  0.12974993  0.23689813  1.0
  P  P3361  1  0.38917380  0.27260708  0.23689813  1.0
  P  P3362  1  0.38917380  0.41546422  0.23689813  1.0
  P  P3363  1  0.38917380  0.55832136  0.23689813  1.0
  P  P3364  1  0.38917380  0.70117851  0.23689813  1.0
  P  P3365  1  0.38917380  0.84403565  0.23689813  1.0
  P  P3366  1  0.38917380  0.98689279  0.23689813  1.0
  P  P3367  1  0.50028491  0.12974993  0.23689813  1.0
  P  P3368  1  0.50028491  0.27260708  0.23689813  1.0
  P  P3369  1  0.50028491  0.41546422  0.23689813  1.0
  P  P3370  1  0.50028491  0.55832136  0.23689813  1.0
  P  P3371  1  0.50028491  0.70117851  0.23689813  1.0
  P  P3372  1  0.50028491  0.84403565  0.23689813  1.0
  P  P3373  1  0.50028491  0.98689279  0.23689813  1.0
  P  P3374  1  0.61139602  0.12974993  0.23689813  1.0
  P  P3375  1  0.61139602  0.27260708  0.23689813  1.0
  P  P3376  1  0.61139602  0.41546422  0.23689813  1.0
  P  P3377  1  0.61139602  0.55832136  0.23689813  1.0
  P  P3378  1  0.61139602  0.70117851  0.23689813  1.0
  P  P3379  1  0.61139602  0.84403565  0.23689813  1.0
  P  P3380  1  0.61139602  0.98689279  0.23689813  1.0
  P  P3381  1  0.72250714  0.12974993  0.23689813  1.0
  P  P3382  1  0.72250714  0.27260708  0.23689813  1.0
  P  P3383  1  0.72250714  0.41546422  0.23689813  1.0
  P  P3384  1  0.72250714  0.55832136  0.23689813  1.0
  P  P3385  1  0.72250714  0.70117851  0.23689813  1.0
  P  P3386  1  0.72250714  0.84403565  0.23689813  1.0
  P  P3387  1  0.72250714  0.98689279  0.23689813  1.0
  P  P3388  1  0.83361825  0.12974993  0.23689813  1.0
  P  P3389  1  0.83361825  0.27260708  0.23689813  1.0
  P  P3390  1  0.83361825  0.41546422  0.23689813  1.0
  P  P3391  1  0.83361825  0.55832136  0.23689813  1.0
  P  P3392  1  0.83361825  0.70117851  0.23689813  1.0
  P  P3393  1  0.83361825  0.84403565  0.23689813  1.0
  P  P3394  1  0.83361825  0.98689279  0.23689813  1.0
  P  P3395  1  0.94472936  0.12974993  0.23689813  1.0
  P  P3396  1  0.94472936  0.27260708  0.23689813  1.0
  P  P3397  1  0.94472936  0.41546422  0.23689813  1.0
  P  P3398  1  0.94472936  0.55832136  0.23689813  1.0
  P  P3399  1  0.94472936  0.70117851  0.23689813  1.0
  P  P3400  1  0.94472936  0.84403565  0.23689813  1.0
  P  P3401  1  0.94472936  0.98689279  0.23689813  1.0
  P  P3402  1  0.04784102  0.07633809  0.29995666  1.0
  P  P3403  1  0.04784102  0.21919523  0.29995666  1.0
  P  P3404  1  0.04784102  0.36205237  0.29995666  1.0
  P  P3405  1  0.04784102  0.50490951  0.29995666  1.0
  P  P3406  1  0.04784102  0.64776666  0.29995666  1.0
  P  P3407  1  0.04784102  0.79062380  0.29995666  1.0
  P  P3408  1  0.04784102  0.93348094  0.29995666  1.0
  P  P3409  1  0.15895214  0.07633809  0.29995666  1.0
  P  P3410  1  0.15895214  0.21919523  0.29995666  1.0
  P  P3411  1  0.15895214  0.36205237  0.29995666  1.0
  P  P3412  1  0.15895214  0.50490951  0.29995666  1.0
  P  P3413  1  0.15895214  0.64776666  0.29995666  1.0
  P  P3414  1  0.15895214  0.79062380  0.29995666  1.0
  P  P3415  1  0.15895214  0.93348094  0.29995666  1.0
  P  P3416  1  0.27006325  0.07633809  0.29995666  1.0
  P  P3417  1  0.27006325  0.21919523  0.29995666  1.0
  P  P3418  1  0.27006325  0.36205237  0.29995666  1.0
  P  P3419  1  0.27006325  0.50490951  0.29995666  1.0
  P  P3420  1  0.27006325  0.64776666  0.29995666  1.0
  P  P3421  1  0.27006325  0.79062380  0.29995666  1.0
  P  P3422  1  0.27006325  0.93348094  0.29995666  1.0
  P  P3423  1  0.38117436  0.07633809  0.29995666  1.0
  P  P3424  1  0.38117436  0.21919523  0.29995666  1.0
  P  P3425  1  0.38117436  0.36205237  0.29995666  1.0
  P  P3426  1  0.38117436  0.50490951  0.29995666  1.0
  P  P3427  1  0.38117436  0.64776666  0.29995666  1.0
  P  P3428  1  0.38117436  0.79062380  0.29995666  1.0
  P  P3429  1  0.38117436  0.93348094  0.29995666  1.0
  P  P3430  1  0.49228547  0.07633809  0.29995666  1.0
  P  P3431  1  0.49228547  0.21919523  0.29995666  1.0
  P  P3432  1  0.49228547  0.36205237  0.29995666  1.0
  P  P3433  1  0.49228547  0.50490951  0.29995666  1.0
  P  P3434  1  0.49228547  0.64776666  0.29995666  1.0
  P  P3435  1  0.49228547  0.79062380  0.29995666  1.0
  P  P3436  1  0.49228547  0.93348094  0.29995666  1.0
  P  P3437  1  0.60339658  0.07633809  0.29995666  1.0
  P  P3438  1  0.60339658  0.21919523  0.29995666  1.0
  P  P3439  1  0.60339658  0.36205237  0.29995666  1.0
  P  P3440  1  0.60339658  0.50490951  0.29995666  1.0
  P  P3441  1  0.60339658  0.64776666  0.29995666  1.0
  P  P3442  1  0.60339658  0.79062380  0.29995666  1.0
  P  P3443  1  0.60339658  0.93348094  0.29995666  1.0
  P  P3444  1  0.71450769  0.07633809  0.29995666  1.0
  P  P3445  1  0.71450769  0.21919523  0.29995666  1.0
  P  P3446  1  0.71450769  0.36205237  0.29995666  1.0
  P  P3447  1  0.71450769  0.50490951  0.29995666  1.0
  P  P3448  1  0.71450769  0.64776666  0.29995666  1.0
  P  P3449  1  0.71450769  0.79062380  0.29995666  1.0
  P  P3450  1  0.71450769  0.93348094  0.29995666  1.0
  P  P3451  1  0.82561880  0.07633809  0.29995666  1.0
  P  P3452  1  0.82561880  0.21919523  0.29995666  1.0
  P  P3453  1  0.82561880  0.36205237  0.29995666  1.0
  P  P3454  1  0.82561880  0.50490951  0.29995666  1.0
  P  P3455  1  0.82561880  0.64776666  0.29995666  1.0
  P  P3456  1  0.82561880  0.79062380  0.29995666  1.0
  P  P3457  1  0.82561880  0.93348094  0.29995666  1.0
  P  P3458  1  0.93672991  0.07633809  0.29995666  1.0
  P  P3459  1  0.93672991  0.21919523  0.29995666  1.0
  P  P3460  1  0.93672991  0.36205237  0.29995666  1.0
  P  P3461  1  0.93672991  0.50490951  0.29995666  1.0
  P  P3462  1  0.93672991  0.64776666  0.29995666  1.0
  P  P3463  1  0.93672991  0.79062380  0.29995666  1.0
  P  P3464  1  0.93672991  0.93348094  0.29995666  1.0
  P  P3465  1  0.06900505  0.08994353  0.34757571  1.0
  P  P3466  1  0.06900505  0.23280067  0.34757571  1.0
  P  P3467  1  0.06900505  0.37565781  0.34757571  1.0
  P  P3468  1  0.06900505  0.51851496  0.34757571  1.0
  P  P3469  1  0.06900505  0.66137210  0.34757571  1.0
  P  P3470  1  0.06900505  0.80422924  0.34757571  1.0
  P  P3471  1  0.06900505  0.94708639  0.34757571  1.0
  P  P3472  1  0.18011616  0.08994353  0.34757571  1.0
  P  P3473  1  0.18011616  0.23280067  0.34757571  1.0
  P  P3474  1  0.18011616  0.37565781  0.34757571  1.0
  P  P3475  1  0.18011616  0.51851496  0.34757571  1.0
  P  P3476  1  0.18011616  0.66137210  0.34757571  1.0
  P  P3477  1  0.18011616  0.80422924  0.34757571  1.0
  P  P3478  1  0.18011616  0.94708639  0.34757571  1.0
  P  P3479  1  0.29122727  0.08994353  0.34757571  1.0
  P  P3480  1  0.29122727  0.23280067  0.34757571  1.0
  P  P3481  1  0.29122727  0.37565781  0.34757571  1.0
  P  P3482  1  0.29122727  0.51851496  0.34757571  1.0
  P  P3483  1  0.29122727  0.66137210  0.34757571  1.0
  P  P3484  1  0.29122727  0.80422924  0.34757571  1.0
  P  P3485  1  0.29122727  0.94708639  0.34757571  1.0
  P  P3486  1  0.40233838  0.08994353  0.34757571  1.0
  P  P3487  1  0.40233838  0.23280067  0.34757571  1.0
  P  P3488  1  0.40233838  0.37565781  0.34757571  1.0
  P  P3489  1  0.40233838  0.51851496  0.34757571  1.0
  P  P3490  1  0.40233838  0.66137210  0.34757571  1.0
  P  P3491  1  0.40233838  0.80422924  0.34757571  1.0
  P  P3492  1  0.40233838  0.94708639  0.34757571  1.0
  P  P3493  1  0.51344949  0.08994353  0.34757571  1.0
  P  P3494  1  0.51344949  0.23280067  0.34757571  1.0
  P  P3495  1  0.51344949  0.37565781  0.34757571  1.0
  P  P3496  1  0.51344949  0.51851496  0.34757571  1.0
  P  P3497  1  0.51344949  0.66137210  0.34757571  1.0
  P  P3498  1  0.51344949  0.80422924  0.34757571  1.0
  P  P3499  1  0.51344949  0.94708639  0.34757571  1.0
  P  P3500  1  0.62456060  0.08994353  0.34757571  1.0
  P  P3501  1  0.62456060  0.23280067  0.34757571  1.0
  P  P3502  1  0.62456060  0.37565781  0.34757571  1.0
  P  P3503  1  0.62456060  0.51851496  0.34757571  1.0
  P  P3504  1  0.62456060  0.66137210  0.34757571  1.0
  P  P3505  1  0.62456060  0.80422924  0.34757571  1.0
  P  P3506  1  0.62456060  0.94708639  0.34757571  1.0
  P  P3507  1  0.73567171  0.08994353  0.34757571  1.0
  P  P3508  1  0.73567171  0.23280067  0.34757571  1.0
  P  P3509  1  0.73567171  0.37565781  0.34757571  1.0
  P  P3510  1  0.73567171  0.51851496  0.34757571  1.0
  P  P3511  1  0.73567171  0.66137210  0.34757571  1.0
  P  P3512  1  0.73567171  0.80422924  0.34757571  1.0
  P  P3513  1  0.73567171  0.94708639  0.34757571  1.0
  P  P3514  1  0.84678282  0.08994353  0.34757571  1.0
  P  P3515  1  0.84678282  0.23280067  0.34757571  1.0
  P  P3516  1  0.84678282  0.37565781  0.34757571  1.0
  P  P3517  1  0.84678282  0.51851496  0.34757571  1.0
  P  P3518  1  0.84678282  0.66137210  0.34757571  1.0
  P  P3519  1  0.84678282  0.80422924  0.34757571  1.0
  P  P3520  1  0.84678282  0.94708639  0.34757571  1.0
  P  P3521  1  0.95789393  0.08994353  0.34757571  1.0
  P  P3522  1  0.95789393  0.23280067  0.34757571  1.0
  P  P3523  1  0.95789393  0.37565781  0.34757571  1.0
  P  P3524  1  0.95789393  0.51851496  0.34757571  1.0
  P  P3525  1  0.95789393  0.66137210  0.34757571  1.0
  P  P3526  1  0.95789393  0.80422924  0.34757571  1.0
  P  P3527  1  0.95789393  0.94708639  0.34757571  1.0
  P  P3528  1  0.02667700  0.06273264  0.25233761  1.0
  P  P3529  1  0.02667700  0.20558979  0.25233761  1.0
  P  P3530  1  0.02667700  0.34844693  0.25233761  1.0
  P  P3531  1  0.02667700  0.49130407  0.25233761  1.0
  P  P3532  1  0.02667700  0.63416122  0.25233761  1.0
  P  P3533  1  0.02667700  0.77701836  0.25233761  1.0
  P  P3534  1  0.02667700  0.91987550  0.25233761  1.0
  P  P3535  1  0.13778811  0.06273264  0.25233761  1.0
  P  P3536  1  0.13778811  0.20558979  0.25233761  1.0
  P  P3537  1  0.13778811  0.34844693  0.25233761  1.0
  P  P3538  1  0.13778811  0.49130407  0.25233761  1.0
  P  P3539  1  0.13778811  0.63416122  0.25233761  1.0
  P  P3540  1  0.13778811  0.77701836  0.25233761  1.0
  P  P3541  1  0.13778811  0.91987550  0.25233761  1.0
  P  P3542  1  0.24889923  0.06273264  0.25233761  1.0
  P  P3543  1  0.24889923  0.20558979  0.25233761  1.0
  P  P3544  1  0.24889923  0.34844693  0.25233761  1.0
  P  P3545  1  0.24889923  0.49130407  0.25233761  1.0
  P  P3546  1  0.24889923  0.63416122  0.25233761  1.0
  P  P3547  1  0.24889923  0.77701836  0.25233761  1.0
  P  P3548  1  0.24889923  0.91987550  0.25233761  1.0
  P  P3549  1  0.36001034  0.06273264  0.25233761  1.0
  P  P3550  1  0.36001034  0.20558979  0.25233761  1.0
  P  P3551  1  0.36001034  0.34844693  0.25233761  1.0
  P  P3552  1  0.36001034  0.49130407  0.25233761  1.0
  P  P3553  1  0.36001034  0.63416122  0.25233761  1.0
  P  P3554  1  0.36001034  0.77701836  0.25233761  1.0
  P  P3555  1  0.36001034  0.91987550  0.25233761  1.0
  P  P3556  1  0.47112145  0.06273264  0.25233761  1.0
  P  P3557  1  0.47112145  0.20558979  0.25233761  1.0
  P  P3558  1  0.47112145  0.34844693  0.25233761  1.0
  P  P3559  1  0.47112145  0.49130407  0.25233761  1.0
  P  P3560  1  0.47112145  0.63416122  0.25233761  1.0
  P  P3561  1  0.47112145  0.77701836  0.25233761  1.0
  P  P3562  1  0.47112145  0.91987550  0.25233761  1.0
  P  P3563  1  0.58223256  0.06273264  0.25233761  1.0
  P  P3564  1  0.58223256  0.20558979  0.25233761  1.0
  P  P3565  1  0.58223256  0.34844693  0.25233761  1.0
  P  P3566  1  0.58223256  0.49130407  0.25233761  1.0
  P  P3567  1  0.58223256  0.63416122  0.25233761  1.0
  P  P3568  1  0.58223256  0.77701836  0.25233761  1.0
  P  P3569  1  0.58223256  0.91987550  0.25233761  1.0
  P  P3570  1  0.69334367  0.06273264  0.25233761  1.0
  P  P3571  1  0.69334367  0.20558979  0.25233761  1.0
  P  P3572  1  0.69334367  0.34844693  0.25233761  1.0
  P  P3573  1  0.69334367  0.49130407  0.25233761  1.0
  P  P3574  1  0.69334367  0.63416122  0.25233761  1.0
  P  P3575  1  0.69334367  0.77701836  0.25233761  1.0
  P  P3576  1  0.69334367  0.91987550  0.25233761  1.0
  P  P3577  1  0.80445478  0.06273264  0.25233761  1.0
  P  P3578  1  0.80445478  0.20558979  0.25233761  1.0
  P  P3579  1  0.80445478  0.34844693  0.25233761  1.0
  P  P3580  1  0.80445478  0.49130407  0.25233761  1.0
  P  P3581  1  0.80445478  0.63416122  0.25233761  1.0
  P  P3582  1  0.80445478  0.77701836  0.25233761  1.0
  P  P3583  1  0.80445478  0.91987550  0.25233761  1.0
  P  P3584  1  0.91556589  0.06273264  0.25233761  1.0
  P  P3585  1  0.91556589  0.20558979  0.25233761  1.0
  P  P3586  1  0.91556589  0.34844693  0.25233761  1.0
  P  P3587  1  0.91556589  0.49130407  0.25233761  1.0
  P  P3588  1  0.91556589  0.63416122  0.25233761  1.0
  P  P3589  1  0.91556589  0.77701836  0.25233761  1.0
  P  P3590  1  0.91556589  0.91987550  0.25233761  1.0
  P  P3591  1  0.01565104  0.10733538  0.27147191  1.0
  P  P3592  1  0.01565104  0.25019253  0.27147191  1.0
  P  P3593  1  0.01565104  0.39304967  0.27147191  1.0
  P  P3594  1  0.01565104  0.53590681  0.27147191  1.0
  P  P3595  1  0.01565104  0.67876396  0.27147191  1.0
  P  P3596  1  0.01565104  0.82162110  0.27147191  1.0
  P  P3597  1  0.01565104  0.96447824  0.27147191  1.0
  P  P3598  1  0.12676215  0.10733538  0.27147191  1.0
  P  P3599  1  0.12676215  0.25019253  0.27147191  1.0
  P  P3600  1  0.12676215  0.39304967  0.27147191  1.0
  P  P3601  1  0.12676215  0.53590681  0.27147191  1.0
  P  P3602  1  0.12676215  0.67876396  0.27147191  1.0
  P  P3603  1  0.12676215  0.82162110  0.27147191  1.0
  P  P3604  1  0.12676215  0.96447824  0.27147191  1.0
  P  P3605  1  0.23787326  0.10733538  0.27147191  1.0
  P  P3606  1  0.23787326  0.25019253  0.27147191  1.0
  P  P3607  1  0.23787326  0.39304967  0.27147191  1.0
  P  P3608  1  0.23787326  0.53590681  0.27147191  1.0
  P  P3609  1  0.23787326  0.67876396  0.27147191  1.0
  P  P3610  1  0.23787326  0.82162110  0.27147191  1.0
  P  P3611  1  0.23787326  0.96447824  0.27147191  1.0
  P  P3612  1  0.34898437  0.10733538  0.27147191  1.0
  P  P3613  1  0.34898437  0.25019253  0.27147191  1.0
  P  P3614  1  0.34898437  0.39304967  0.27147191  1.0
  P  P3615  1  0.34898437  0.53590681  0.27147191  1.0
  P  P3616  1  0.34898437  0.67876396  0.27147191  1.0
  P  P3617  1  0.34898437  0.82162110  0.27147191  1.0
  P  P3618  1  0.34898437  0.96447824  0.27147191  1.0
  P  P3619  1  0.46009548  0.10733538  0.27147191  1.0
  P  P3620  1  0.46009548  0.25019253  0.27147191  1.0
  P  P3621  1  0.46009548  0.39304967  0.27147191  1.0
  P  P3622  1  0.46009548  0.53590681  0.27147191  1.0
  P  P3623  1  0.46009548  0.67876396  0.27147191  1.0
  P  P3624  1  0.46009548  0.82162110  0.27147191  1.0
  P  P3625  1  0.46009548  0.96447824  0.27147191  1.0
  P  P3626  1  0.57120659  0.10733538  0.27147191  1.0
  P  P3627  1  0.57120659  0.25019253  0.27147191  1.0
  P  P3628  1  0.57120659  0.39304967  0.27147191  1.0
  P  P3629  1  0.57120659  0.53590681  0.27147191  1.0
  P  P3630  1  0.57120659  0.67876396  0.27147191  1.0
  P  P3631  1  0.57120659  0.82162110  0.27147191  1.0
  P  P3632  1  0.57120659  0.96447824  0.27147191  1.0
  P  P3633  1  0.68231771  0.10733538  0.27147191  1.0
  P  P3634  1  0.68231771  0.25019253  0.27147191  1.0
  P  P3635  1  0.68231771  0.39304967  0.27147191  1.0
  P  P3636  1  0.68231771  0.53590681  0.27147191  1.0
  P  P3637  1  0.68231771  0.67876396  0.27147191  1.0
  P  P3638  1  0.68231771  0.82162110  0.27147191  1.0
  P  P3639  1  0.68231771  0.96447824  0.27147191  1.0
  P  P3640  1  0.79342882  0.10733538  0.27147191  1.0
  P  P3641  1  0.79342882  0.25019253  0.27147191  1.0
  P  P3642  1  0.79342882  0.39304967  0.27147191  1.0
  P  P3643  1  0.79342882  0.53590681  0.27147191  1.0
  P  P3644  1  0.79342882  0.67876396  0.27147191  1.0
  P  P3645  1  0.79342882  0.82162110  0.27147191  1.0
  P  P3646  1  0.79342882  0.96447824  0.27147191  1.0
  P  P3647  1  0.90453993  0.10733538  0.27147191  1.0
  P  P3648  1  0.90453993  0.25019253  0.27147191  1.0
  P  P3649  1  0.90453993  0.39304967  0.27147191  1.0
  P  P3650  1  0.90453993  0.53590681  0.27147191  1.0
  P  P3651  1  0.90453993  0.67876396  0.27147191  1.0
  P  P3652  1  0.90453993  0.82162110  0.27147191  1.0
  P  P3653  1  0.90453993  0.96447824  0.27147191  1.0
  P  P3654  1  0.03681506  0.12094083  0.31909096  1.0
  P  P3655  1  0.03681506  0.26379797  0.31909096  1.0
  P  P3656  1  0.03681506  0.40665511  0.31909096  1.0
  P  P3657  1  0.03681506  0.54951225  0.31909096  1.0
  P  P3658  1  0.03681506  0.69236940  0.31909096  1.0
  P  P3659  1  0.03681506  0.83522654  0.31909096  1.0
  P  P3660  1  0.03681506  0.97808368  0.31909096  1.0
  P  P3661  1  0.14792617  0.12094083  0.31909096  1.0
  P  P3662  1  0.14792617  0.26379797  0.31909096  1.0
  P  P3663  1  0.14792617  0.40665511  0.31909096  1.0
  P  P3664  1  0.14792617  0.54951225  0.31909096  1.0
  P  P3665  1  0.14792617  0.69236940  0.31909096  1.0
  P  P3666  1  0.14792617  0.83522654  0.31909096  1.0
  P  P3667  1  0.14792617  0.97808368  0.31909096  1.0
  P  P3668  1  0.25903728  0.12094083  0.31909096  1.0
  P  P3669  1  0.25903728  0.26379797  0.31909096  1.0
  P  P3670  1  0.25903728  0.40665511  0.31909096  1.0
  P  P3671  1  0.25903728  0.54951225  0.31909096  1.0
  P  P3672  1  0.25903728  0.69236940  0.31909096  1.0
  P  P3673  1  0.25903728  0.83522654  0.31909096  1.0
  P  P3674  1  0.25903728  0.97808368  0.31909096  1.0
  P  P3675  1  0.37014839  0.12094083  0.31909096  1.0
  P  P3676  1  0.37014839  0.26379797  0.31909096  1.0
  P  P3677  1  0.37014839  0.40665511  0.31909096  1.0
  P  P3678  1  0.37014839  0.54951225  0.31909096  1.0
  P  P3679  1  0.37014839  0.69236940  0.31909096  1.0
  P  P3680  1  0.37014839  0.83522654  0.31909096  1.0
  P  P3681  1  0.37014839  0.97808368  0.31909096  1.0
  P  P3682  1  0.48125950  0.12094083  0.31909096  1.0
  P  P3683  1  0.48125950  0.26379797  0.31909096  1.0
  P  P3684  1  0.48125950  0.40665511  0.31909096  1.0
  P  P3685  1  0.48125950  0.54951225  0.31909096  1.0
  P  P3686  1  0.48125950  0.69236940  0.31909096  1.0
  P  P3687  1  0.48125950  0.83522654  0.31909096  1.0
  P  P3688  1  0.48125950  0.97808368  0.31909096  1.0
  P  P3689  1  0.59237062  0.12094083  0.31909096  1.0
  P  P3690  1  0.59237062  0.26379797  0.31909096  1.0
  P  P3691  1  0.59237062  0.40665511  0.31909096  1.0
  P  P3692  1  0.59237062  0.54951225  0.31909096  1.0
  P  P3693  1  0.59237062  0.69236940  0.31909096  1.0
  P  P3694  1  0.59237062  0.83522654  0.31909096  1.0
  P  P3695  1  0.59237062  0.97808368  0.31909096  1.0
  P  P3696  1  0.70348173  0.12094083  0.31909096  1.0
  P  P3697  1  0.70348173  0.26379797  0.31909096  1.0
  P  P3698  1  0.70348173  0.40665511  0.31909096  1.0
  P  P3699  1  0.70348173  0.54951225  0.31909096  1.0
  P  P3700  1  0.70348173  0.69236940  0.31909096  1.0
  P  P3701  1  0.70348173  0.83522654  0.31909096  1.0
  P  P3702  1  0.70348173  0.97808368  0.31909096  1.0
  P  P3703  1  0.81459284  0.12094083  0.31909096  1.0
  P  P3704  1  0.81459284  0.26379797  0.31909096  1.0
  P  P3705  1  0.81459284  0.40665511  0.31909096  1.0
  P  P3706  1  0.81459284  0.54951225  0.31909096  1.0
  P  P3707  1  0.81459284  0.69236940  0.31909096  1.0
  P  P3708  1  0.81459284  0.83522654  0.31909096  1.0
  P  P3709  1  0.81459284  0.97808368  0.31909096  1.0
  P  P3710  1  0.92570395  0.12094083  0.31909096  1.0
  P  P3711  1  0.92570395  0.26379797  0.31909096  1.0
  P  P3712  1  0.92570395  0.40665511  0.31909096  1.0
  P  P3713  1  0.92570395  0.54951225  0.31909096  1.0
  P  P3714  1  0.92570395  0.69236940  0.31909096  1.0
  P  P3715  1  0.92570395  0.83522654  0.31909096  1.0
  P  P3716  1  0.92570395  0.97808368  0.31909096  1.0
  P  P3717  1  0.10559813  0.09372994  0.22385286  1.0
  P  P3718  1  0.10559813  0.23658708  0.22385286  1.0
  P  P3719  1  0.10559813  0.37944423  0.22385286  1.0
  P  P3720  1  0.10559813  0.52230137  0.22385286  1.0
  P  P3721  1  0.10559813  0.66515851  0.22385286  1.0
  P  P3722  1  0.10559813  0.80801566  0.22385286  1.0
  P  P3723  1  0.10559813  0.95087280  0.22385286  1.0
  P  P3724  1  0.21670924  0.09372994  0.22385286  1.0
  P  P3725  1  0.21670924  0.23658708  0.22385286  1.0
  P  P3726  1  0.21670924  0.37944423  0.22385286  1.0
  P  P3727  1  0.21670924  0.52230137  0.22385286  1.0
  P  P3728  1  0.21670924  0.66515851  0.22385286  1.0
  P  P3729  1  0.21670924  0.80801566  0.22385286  1.0
  P  P3730  1  0.21670924  0.95087280  0.22385286  1.0
  P  P3731  1  0.32782035  0.09372994  0.22385286  1.0
  P  P3732  1  0.32782035  0.23658708  0.22385286  1.0
  P  P3733  1  0.32782035  0.37944423  0.22385286  1.0
  P  P3734  1  0.32782035  0.52230137  0.22385286  1.0
  P  P3735  1  0.32782035  0.66515851  0.22385286  1.0
  P  P3736  1  0.32782035  0.80801566  0.22385286  1.0
  P  P3737  1  0.32782035  0.95087280  0.22385286  1.0
  P  P3738  1  0.43893146  0.09372994  0.22385286  1.0
  P  P3739  1  0.43893146  0.23658708  0.22385286  1.0
  P  P3740  1  0.43893146  0.37944423  0.22385286  1.0
  P  P3741  1  0.43893146  0.52230137  0.22385286  1.0
  P  P3742  1  0.43893146  0.66515851  0.22385286  1.0
  P  P3743  1  0.43893146  0.80801566  0.22385286  1.0
  P  P3744  1  0.43893146  0.95087280  0.22385286  1.0
  P  P3745  1  0.55004257  0.09372994  0.22385286  1.0
  P  P3746  1  0.55004257  0.23658708  0.22385286  1.0
  P  P3747  1  0.55004257  0.37944423  0.22385286  1.0
  P  P3748  1  0.55004257  0.52230137  0.22385286  1.0
  P  P3749  1  0.55004257  0.66515851  0.22385286  1.0
  P  P3750  1  0.55004257  0.80801566  0.22385286  1.0
  P  P3751  1  0.55004257  0.95087280  0.22385286  1.0
  P  P3752  1  0.66115368  0.09372994  0.22385286  1.0
  P  P3753  1  0.66115368  0.23658708  0.22385286  1.0
  P  P3754  1  0.66115368  0.37944423  0.22385286  1.0
  P  P3755  1  0.66115368  0.52230137  0.22385286  1.0
  P  P3756  1  0.66115368  0.66515851  0.22385286  1.0
  P  P3757  1  0.66115368  0.80801566  0.22385286  1.0
  P  P3758  1  0.66115368  0.95087280  0.22385286  1.0
  P  P3759  1  0.77226480  0.09372994  0.22385286  1.0
  P  P3760  1  0.77226480  0.23658708  0.22385286  1.0
  P  P3761  1  0.77226480  0.37944423  0.22385286  1.0
  P  P3762  1  0.77226480  0.52230137  0.22385286  1.0
  P  P3763  1  0.77226480  0.66515851  0.22385286  1.0
  P  P3764  1  0.77226480  0.80801566  0.22385286  1.0
  P  P3765  1  0.77226480  0.95087280  0.22385286  1.0
  P  P3766  1  0.88337591  0.09372994  0.22385286  1.0
  P  P3767  1  0.88337591  0.23658708  0.22385286  1.0
  P  P3768  1  0.88337591  0.37944423  0.22385286  1.0
  P  P3769  1  0.88337591  0.52230137  0.22385286  1.0
  P  P3770  1  0.88337591  0.66515851  0.22385286  1.0
  P  P3771  1  0.88337591  0.80801566  0.22385286  1.0
  P  P3772  1  0.88337591  0.95087280  0.22385286  1.0
  P  P3773  1  0.99448702  0.09372994  0.22385286  1.0
  P  P3774  1  0.99448702  0.23658708  0.22385286  1.0
  P  P3775  1  0.99448702  0.37944423  0.22385286  1.0
  P  P3776  1  0.99448702  0.52230137  0.22385286  1.0
  P  P3777  1  0.99448702  0.66515851  0.22385286  1.0
  P  P3778  1  0.99448702  0.80801566  0.22385286  1.0
  P  P3779  1  0.99448702  0.95087280  0.22385286  1.0
  P  P3780  1  0.02537959  0.03057025  0.30145851  1.0
  P  P3781  1  0.02537959  0.17342739  0.30145851  1.0
  P  P3782  1  0.02537959  0.31628454  0.30145851  1.0
  P  P3783  1  0.02537959  0.45914168  0.30145851  1.0
  P  P3784  1  0.02537959  0.60199882  0.30145851  1.0
  P  P3785  1  0.02537959  0.74485597  0.30145851  1.0
  P  P3786  1  0.02537959  0.88771311  0.30145851  1.0
  P  P3787  1  0.13649070  0.03057025  0.30145851  1.0
  P  P3788  1  0.13649070  0.17342739  0.30145851  1.0
  P  P3789  1  0.13649070  0.31628454  0.30145851  1.0
  P  P3790  1  0.13649070  0.45914168  0.30145851  1.0
  P  P3791  1  0.13649070  0.60199882  0.30145851  1.0
  P  P3792  1  0.13649070  0.74485597  0.30145851  1.0
  P  P3793  1  0.13649070  0.88771311  0.30145851  1.0
  P  P3794  1  0.24760181  0.03057025  0.30145851  1.0
  P  P3795  1  0.24760181  0.17342739  0.30145851  1.0
  P  P3796  1  0.24760181  0.31628454  0.30145851  1.0
  P  P3797  1  0.24760181  0.45914168  0.30145851  1.0
  P  P3798  1  0.24760181  0.60199882  0.30145851  1.0
  P  P3799  1  0.24760181  0.74485597  0.30145851  1.0
  P  P3800  1  0.24760181  0.88771311  0.30145851  1.0
  P  P3801  1  0.35871292  0.03057025  0.30145851  1.0
  P  P3802  1  0.35871292  0.17342739  0.30145851  1.0
  P  P3803  1  0.35871292  0.31628454  0.30145851  1.0
  P  P3804  1  0.35871292  0.45914168  0.30145851  1.0
  P  P3805  1  0.35871292  0.60199882  0.30145851  1.0
  P  P3806  1  0.35871292  0.74485597  0.30145851  1.0
  P  P3807  1  0.35871292  0.88771311  0.30145851  1.0
  P  P3808  1  0.46982403  0.03057025  0.30145851  1.0
  P  P3809  1  0.46982403  0.17342739  0.30145851  1.0
  P  P3810  1  0.46982403  0.31628454  0.30145851  1.0
  P  P3811  1  0.46982403  0.45914168  0.30145851  1.0
  P  P3812  1  0.46982403  0.60199882  0.30145851  1.0
  P  P3813  1  0.46982403  0.74485597  0.30145851  1.0
  P  P3814  1  0.46982403  0.88771311  0.30145851  1.0
  P  P3815  1  0.58093514  0.03057025  0.30145851  1.0
  P  P3816  1  0.58093514  0.17342739  0.30145851  1.0
  P  P3817  1  0.58093514  0.31628454  0.30145851  1.0
  P  P3818  1  0.58093514  0.45914168  0.30145851  1.0
  P  P3819  1  0.58093514  0.60199882  0.30145851  1.0
  P  P3820  1  0.58093514  0.74485597  0.30145851  1.0
  P  P3821  1  0.58093514  0.88771311  0.30145851  1.0
  P  P3822  1  0.69204625  0.03057025  0.30145851  1.0
  P  P3823  1  0.69204625  0.17342739  0.30145851  1.0
  P  P3824  1  0.69204625  0.31628454  0.30145851  1.0
  P  P3825  1  0.69204625  0.45914168  0.30145851  1.0
  P  P3826  1  0.69204625  0.60199882  0.30145851  1.0
  P  P3827  1  0.69204625  0.74485597  0.30145851  1.0
  P  P3828  1  0.69204625  0.88771311  0.30145851  1.0
  P  P3829  1  0.80315737  0.03057025  0.30145851  1.0
  P  P3830  1  0.80315737  0.17342739  0.30145851  1.0
  P  P3831  1  0.80315737  0.31628454  0.30145851  1.0
  P  P3832  1  0.80315737  0.45914168  0.30145851  1.0
  P  P3833  1  0.80315737  0.60199882  0.30145851  1.0
  P  P3834  1  0.80315737  0.74485597  0.30145851  1.0
  P  P3835  1  0.80315737  0.88771311  0.30145851  1.0
  P  P3836  1  0.91426848  0.03057025  0.30145851  1.0
  P  P3837  1  0.91426848  0.17342739  0.30145851  1.0
  P  P3838  1  0.91426848  0.31628454  0.30145851  1.0
  P  P3839  1  0.91426848  0.45914168  0.30145851  1.0
  P  P3840  1  0.91426848  0.60199882  0.30145851  1.0
  P  P3841  1  0.91426848  0.74485597  0.30145851  1.0
  P  P3842  1  0.91426848  0.88771311  0.30145851  1.0
  P  P3843  1  0.04654361  0.04417569  0.34907756  1.0
  P  P3844  1  0.04654361  0.18703284  0.34907756  1.0
  P  P3845  1  0.04654361  0.32988998  0.34907756  1.0
  P  P3846  1  0.04654361  0.47274712  0.34907756  1.0
  P  P3847  1  0.04654361  0.61560427  0.34907756  1.0
  P  P3848  1  0.04654361  0.75846141  0.34907756  1.0
  P  P3849  1  0.04654361  0.90131855  0.34907756  1.0
  P  P3850  1  0.15765472  0.04417569  0.34907756  1.0
  P  P3851  1  0.15765472  0.18703284  0.34907756  1.0
  P  P3852  1  0.15765472  0.32988998  0.34907756  1.0
  P  P3853  1  0.15765472  0.47274712  0.34907756  1.0
  P  P3854  1  0.15765472  0.61560427  0.34907756  1.0
  P  P3855  1  0.15765472  0.75846141  0.34907756  1.0
  P  P3856  1  0.15765472  0.90131855  0.34907756  1.0
  P  P3857  1  0.26876583  0.04417569  0.34907756  1.0
  P  P3858  1  0.26876583  0.18703284  0.34907756  1.0
  P  P3859  1  0.26876583  0.32988998  0.34907756  1.0
  P  P3860  1  0.26876583  0.47274712  0.34907756  1.0
  P  P3861  1  0.26876583  0.61560427  0.34907756  1.0
  P  P3862  1  0.26876583  0.75846141  0.34907756  1.0
  P  P3863  1  0.26876583  0.90131855  0.34907756  1.0
  P  P3864  1  0.37987694  0.04417569  0.34907756  1.0
  P  P3865  1  0.37987694  0.18703284  0.34907756  1.0
  P  P3866  1  0.37987694  0.32988998  0.34907756  1.0
  P  P3867  1  0.37987694  0.47274712  0.34907756  1.0
  P  P3868  1  0.37987694  0.61560427  0.34907756  1.0
  P  P3869  1  0.37987694  0.75846141  0.34907756  1.0
  P  P3870  1  0.37987694  0.90131855  0.34907756  1.0
  P  P3871  1  0.49098805  0.04417569  0.34907756  1.0
  P  P3872  1  0.49098805  0.18703284  0.34907756  1.0
  P  P3873  1  0.49098805  0.32988998  0.34907756  1.0
  P  P3874  1  0.49098805  0.47274712  0.34907756  1.0
  P  P3875  1  0.49098805  0.61560427  0.34907756  1.0
  P  P3876  1  0.49098805  0.75846141  0.34907756  1.0
  P  P3877  1  0.49098805  0.90131855  0.34907756  1.0
  P  P3878  1  0.60209917  0.04417569  0.34907756  1.0
  P  P3879  1  0.60209917  0.18703284  0.34907756  1.0
  P  P3880  1  0.60209917  0.32988998  0.34907756  1.0
  P  P3881  1  0.60209917  0.47274712  0.34907756  1.0
  P  P3882  1  0.60209917  0.61560427  0.34907756  1.0
  P  P3883  1  0.60209917  0.75846141  0.34907756  1.0
  P  P3884  1  0.60209917  0.90131855  0.34907756  1.0
  P  P3885  1  0.71321028  0.04417569  0.34907756  1.0
  P  P3886  1  0.71321028  0.18703284  0.34907756  1.0
  P  P3887  1  0.71321028  0.32988998  0.34907756  1.0
  P  P3888  1  0.71321028  0.47274712  0.34907756  1.0
  P  P3889  1  0.71321028  0.61560427  0.34907756  1.0
  P  P3890  1  0.71321028  0.75846141  0.34907756  1.0
  P  P3891  1  0.71321028  0.90131855  0.34907756  1.0
  P  P3892  1  0.82432139  0.04417569  0.34907756  1.0
  P  P3893  1  0.82432139  0.18703284  0.34907756  1.0
  P  P3894  1  0.82432139  0.32988998  0.34907756  1.0
  P  P3895  1  0.82432139  0.47274712  0.34907756  1.0
  P  P3896  1  0.82432139  0.61560427  0.34907756  1.0
  P  P3897  1  0.82432139  0.75846141  0.34907756  1.0
  P  P3898  1  0.82432139  0.90131855  0.34907756  1.0
  P  P3899  1  0.93543250  0.04417569  0.34907756  1.0
  P  P3900  1  0.93543250  0.18703284  0.34907756  1.0
  P  P3901  1  0.93543250  0.32988998  0.34907756  1.0
  P  P3902  1  0.93543250  0.47274712  0.34907756  1.0
  P  P3903  1  0.93543250  0.61560427  0.34907756  1.0
  P  P3904  1  0.93543250  0.75846141  0.34907756  1.0
  P  P3905  1  0.93543250  0.90131855  0.34907756  1.0
  P  P3906  1  0.00421557  0.01696481  0.25383946  1.0
  P  P3907  1  0.00421557  0.15982195  0.25383946  1.0
  P  P3908  1  0.00421557  0.30267910  0.25383946  1.0
  P  P3909  1  0.00421557  0.44553624  0.25383946  1.0
  P  P3910  1  0.00421557  0.58839338  0.25383946  1.0
  P  P3911  1  0.00421557  0.73125052  0.25383946  1.0
  P  P3912  1  0.00421557  0.87410767  0.25383946  1.0
  P  P3913  1  0.11532668  0.01696481  0.25383946  1.0
  P  P3914  1  0.11532668  0.15982195  0.25383946  1.0
  P  P3915  1  0.11532668  0.30267910  0.25383946  1.0
  P  P3916  1  0.11532668  0.44553624  0.25383946  1.0
  P  P3917  1  0.11532668  0.58839338  0.25383946  1.0
  P  P3918  1  0.11532668  0.73125052  0.25383946  1.0
  P  P3919  1  0.11532668  0.87410767  0.25383946  1.0
  P  P3920  1  0.22643779  0.01696481  0.25383946  1.0
  P  P3921  1  0.22643779  0.15982195  0.25383946  1.0
  P  P3922  1  0.22643779  0.30267910  0.25383946  1.0
  P  P3923  1  0.22643779  0.44553624  0.25383946  1.0
  P  P3924  1  0.22643779  0.58839338  0.25383946  1.0
  P  P3925  1  0.22643779  0.73125052  0.25383946  1.0
  P  P3926  1  0.22643779  0.87410767  0.25383946  1.0
  P  P3927  1  0.33754890  0.01696481  0.25383946  1.0
  P  P3928  1  0.33754890  0.15982195  0.25383946  1.0
  P  P3929  1  0.33754890  0.30267910  0.25383946  1.0
  P  P3930  1  0.33754890  0.44553624  0.25383946  1.0
  P  P3931  1  0.33754890  0.58839338  0.25383946  1.0
  P  P3932  1  0.33754890  0.73125052  0.25383946  1.0
  P  P3933  1  0.33754890  0.87410767  0.25383946  1.0
  P  P3934  1  0.44866001  0.01696481  0.25383946  1.0
  P  P3935  1  0.44866001  0.15982195  0.25383946  1.0
  P  P3936  1  0.44866001  0.30267910  0.25383946  1.0
  P  P3937  1  0.44866001  0.44553624  0.25383946  1.0
  P  P3938  1  0.44866001  0.58839338  0.25383946  1.0
  P  P3939  1  0.44866001  0.73125052  0.25383946  1.0
  P  P3940  1  0.44866001  0.87410767  0.25383946  1.0
  P  P3941  1  0.55977112  0.01696481  0.25383946  1.0
  P  P3942  1  0.55977112  0.15982195  0.25383946  1.0
  P  P3943  1  0.55977112  0.30267910  0.25383946  1.0
  P  P3944  1  0.55977112  0.44553624  0.25383946  1.0
  P  P3945  1  0.55977112  0.58839338  0.25383946  1.0
  P  P3946  1  0.55977112  0.73125052  0.25383946  1.0
  P  P3947  1  0.55977112  0.87410767  0.25383946  1.0
  P  P3948  1  0.67088223  0.01696481  0.25383946  1.0
  P  P3949  1  0.67088223  0.15982195  0.25383946  1.0
  P  P3950  1  0.67088223  0.30267910  0.25383946  1.0
  P  P3951  1  0.67088223  0.44553624  0.25383946  1.0
  P  P3952  1  0.67088223  0.58839338  0.25383946  1.0
  P  P3953  1  0.67088223  0.73125052  0.25383946  1.0
  P  P3954  1  0.67088223  0.87410767  0.25383946  1.0
  P  P3955  1  0.78199334  0.01696481  0.25383946  1.0
  P  P3956  1  0.78199334  0.15982195  0.25383946  1.0
  P  P3957  1  0.78199334  0.30267910  0.25383946  1.0
  P  P3958  1  0.78199334  0.44553624  0.25383946  1.0
  P  P3959  1  0.78199334  0.58839338  0.25383946  1.0
  P  P3960  1  0.78199334  0.73125052  0.25383946  1.0
  P  P3961  1  0.78199334  0.87410767  0.25383946  1.0
  P  P3962  1  0.89310446  0.01696481  0.25383946  1.0
  P  P3963  1  0.89310446  0.15982195  0.25383946  1.0
  P  P3964  1  0.89310446  0.30267910  0.25383946  1.0
  P  P3965  1  0.89310446  0.44553624  0.25383946  1.0
  P  P3966  1  0.89310446  0.58839338  0.25383946  1.0
  P  P3967  1  0.89310446  0.73125052  0.25383946  1.0
  P  P3968  1  0.89310446  0.87410767  0.25383946  1.0
  P  P3969  1  0.03811248  0.01024607  0.26997006  1.0
  P  P3970  1  0.03811248  0.15310322  0.26997006  1.0
  P  P3971  1  0.03811248  0.29596036  0.26997006  1.0
  P  P3972  1  0.03811248  0.43881750  0.26997006  1.0
  P  P3973  1  0.03811248  0.58167465  0.26997006  1.0
  P  P3974  1  0.03811248  0.72453179  0.26997006  1.0
  P  P3975  1  0.03811248  0.86738893  0.26997006  1.0
  P  P3976  1  0.14922359  0.01024607  0.26997006  1.0
  P  P3977  1  0.14922359  0.15310322  0.26997006  1.0
  P  P3978  1  0.14922359  0.29596036  0.26997006  1.0
  P  P3979  1  0.14922359  0.43881750  0.26997006  1.0
  P  P3980  1  0.14922359  0.58167465  0.26997006  1.0
  P  P3981  1  0.14922359  0.72453179  0.26997006  1.0
  P  P3982  1  0.14922359  0.86738893  0.26997006  1.0
  P  P3983  1  0.26033470  0.01024607  0.26997006  1.0
  P  P3984  1  0.26033470  0.15310322  0.26997006  1.0
  P  P3985  1  0.26033470  0.29596036  0.26997006  1.0
  P  P3986  1  0.26033470  0.43881750  0.26997006  1.0
  P  P3987  1  0.26033470  0.58167465  0.26997006  1.0
  P  P3988  1  0.26033470  0.72453179  0.26997006  1.0
  P  P3989  1  0.26033470  0.86738893  0.26997006  1.0
  P  P3990  1  0.37144581  0.01024607  0.26997006  1.0
  P  P3991  1  0.37144581  0.15310322  0.26997006  1.0
  P  P3992  1  0.37144581  0.29596036  0.26997006  1.0
  P  P3993  1  0.37144581  0.43881750  0.26997006  1.0
  P  P3994  1  0.37144581  0.58167465  0.26997006  1.0
  P  P3995  1  0.37144581  0.72453179  0.26997006  1.0
  P  P3996  1  0.37144581  0.86738893  0.26997006  1.0
  P  P3997  1  0.48255692  0.01024607  0.26997006  1.0
  P  P3998  1  0.48255692  0.15310322  0.26997006  1.0
  P  P3999  1  0.48255692  0.29596036  0.26997006  1.0
  P  P4000  1  0.48255692  0.43881750  0.26997006  1.0
  P  P4001  1  0.48255692  0.58167465  0.26997006  1.0
  P  P4002  1  0.48255692  0.72453179  0.26997006  1.0
  P  P4003  1  0.48255692  0.86738893  0.26997006  1.0
  P  P4004  1  0.59366803  0.01024607  0.26997006  1.0
  P  P4005  1  0.59366803  0.15310322  0.26997006  1.0
  P  P4006  1  0.59366803  0.29596036  0.26997006  1.0
  P  P4007  1  0.59366803  0.43881750  0.26997006  1.0
  P  P4008  1  0.59366803  0.58167465  0.26997006  1.0
  P  P4009  1  0.59366803  0.72453179  0.26997006  1.0
  P  P4010  1  0.59366803  0.86738893  0.26997006  1.0
  P  P4011  1  0.70477914  0.01024607  0.26997006  1.0
  P  P4012  1  0.70477914  0.15310322  0.26997006  1.0
  P  P4013  1  0.70477914  0.29596036  0.26997006  1.0
  P  P4014  1  0.70477914  0.43881750  0.26997006  1.0
  P  P4015  1  0.70477914  0.58167465  0.26997006  1.0
  P  P4016  1  0.70477914  0.72453179  0.26997006  1.0
  P  P4017  1  0.70477914  0.86738893  0.26997006  1.0
  P  P4018  1  0.81589025  0.01024607  0.26997006  1.0
  P  P4019  1  0.81589025  0.15310322  0.26997006  1.0
  P  P4020  1  0.81589025  0.29596036  0.26997006  1.0
  P  P4021  1  0.81589025  0.43881750  0.26997006  1.0
  P  P4022  1  0.81589025  0.58167465  0.26997006  1.0
  P  P4023  1  0.81589025  0.72453179  0.26997006  1.0
  P  P4024  1  0.81589025  0.86738893  0.26997006  1.0
  P  P4025  1  0.92700136  0.01024607  0.26997006  1.0
  P  P4026  1  0.92700136  0.15310322  0.26997006  1.0
  P  P4027  1  0.92700136  0.29596036  0.26997006  1.0
  P  P4028  1  0.92700136  0.43881750  0.26997006  1.0
  P  P4029  1  0.92700136  0.58167465  0.26997006  1.0
  P  P4030  1  0.92700136  0.72453179  0.26997006  1.0
  P  P4031  1  0.92700136  0.86738893  0.26997006  1.0
  P  P4032  1  0.05927650  0.02385152  0.31758911  1.0
  P  P4033  1  0.05927650  0.16670866  0.31758911  1.0
  P  P4034  1  0.05927650  0.30956580  0.31758911  1.0
  P  P4035  1  0.05927650  0.45242295  0.31758911  1.0
  P  P4036  1  0.05927650  0.59528009  0.31758911  1.0
  P  P4037  1  0.05927650  0.73813723  0.31758911  1.0
  P  P4038  1  0.05927650  0.88099437  0.31758911  1.0
  P  P4039  1  0.17038761  0.02385152  0.31758911  1.0
  P  P4040  1  0.17038761  0.16670866  0.31758911  1.0
  P  P4041  1  0.17038761  0.30956580  0.31758911  1.0
  P  P4042  1  0.17038761  0.45242295  0.31758911  1.0
  P  P4043  1  0.17038761  0.59528009  0.31758911  1.0
  P  P4044  1  0.17038761  0.73813723  0.31758911  1.0
  P  P4045  1  0.17038761  0.88099437  0.31758911  1.0
  P  P4046  1  0.28149872  0.02385152  0.31758911  1.0
  P  P4047  1  0.28149872  0.16670866  0.31758911  1.0
  P  P4048  1  0.28149872  0.30956580  0.31758911  1.0
  P  P4049  1  0.28149872  0.45242295  0.31758911  1.0
  P  P4050  1  0.28149872  0.59528009  0.31758911  1.0
  P  P4051  1  0.28149872  0.73813723  0.31758911  1.0
  P  P4052  1  0.28149872  0.88099437  0.31758911  1.0
  P  P4053  1  0.39260983  0.02385152  0.31758911  1.0
  P  P4054  1  0.39260983  0.16670866  0.31758911  1.0
  P  P4055  1  0.39260983  0.30956580  0.31758911  1.0
  P  P4056  1  0.39260983  0.45242295  0.31758911  1.0
  P  P4057  1  0.39260983  0.59528009  0.31758911  1.0
  P  P4058  1  0.39260983  0.73813723  0.31758911  1.0
  P  P4059  1  0.39260983  0.88099437  0.31758911  1.0
  P  P4060  1  0.50372094  0.02385152  0.31758911  1.0
  P  P4061  1  0.50372094  0.16670866  0.31758911  1.0
  P  P4062  1  0.50372094  0.30956580  0.31758911  1.0
  P  P4063  1  0.50372094  0.45242295  0.31758911  1.0
  P  P4064  1  0.50372094  0.59528009  0.31758911  1.0
  P  P4065  1  0.50372094  0.73813723  0.31758911  1.0
  P  P4066  1  0.50372094  0.88099437  0.31758911  1.0
  P  P4067  1  0.61483205  0.02385152  0.31758911  1.0
  P  P4068  1  0.61483205  0.16670866  0.31758911  1.0
  P  P4069  1  0.61483205  0.30956580  0.31758911  1.0
  P  P4070  1  0.61483205  0.45242295  0.31758911  1.0
  P  P4071  1  0.61483205  0.59528009  0.31758911  1.0
  P  P4072  1  0.61483205  0.73813723  0.31758911  1.0
  P  P4073  1  0.61483205  0.88099437  0.31758911  1.0
  P  P4074  1  0.72594316  0.02385152  0.31758911  1.0
  P  P4075  1  0.72594316  0.16670866  0.31758911  1.0
  P  P4076  1  0.72594316  0.30956580  0.31758911  1.0
  P  P4077  1  0.72594316  0.45242295  0.31758911  1.0
  P  P4078  1  0.72594316  0.59528009  0.31758911  1.0
  P  P4079  1  0.72594316  0.73813723  0.31758911  1.0
  P  P4080  1  0.72594316  0.88099437  0.31758911  1.0
  P  P4081  1  0.83705427  0.02385152  0.31758911  1.0
  P  P4082  1  0.83705427  0.16670866  0.31758911  1.0
  P  P4083  1  0.83705427  0.30956580  0.31758911  1.0
  P  P4084  1  0.83705427  0.45242295  0.31758911  1.0
  P  P4085  1  0.83705427  0.59528009  0.31758911  1.0
  P  P4086  1  0.83705427  0.73813723  0.31758911  1.0
  P  P4087  1  0.83705427  0.88099437  0.31758911  1.0
  P  P4088  1  0.94816539  0.02385152  0.31758911  1.0
  P  P4089  1  0.94816539  0.16670866  0.31758911  1.0
  P  P4090  1  0.94816539  0.30956580  0.31758911  1.0
  P  P4091  1  0.94816539  0.45242295  0.31758911  1.0
  P  P4092  1  0.94816539  0.59528009  0.31758911  1.0
  P  P4093  1  0.94816539  0.73813723  0.31758911  1.0
  P  P4094  1  0.94816539  0.88099437  0.31758911  1.0
  P  P4095  1  0.01694845  0.13949778  0.22235101  1.0
  P  P4096  1  0.01694845  0.28235492  0.22235101  1.0
  P  P4097  1  0.01694845  0.42521206  0.22235101  1.0
  P  P4098  1  0.01694845  0.56806920  0.22235101  1.0
  P  P4099  1  0.01694845  0.71092635  0.22235101  1.0
  P  P4100  1  0.01694845  0.85378349  0.22235101  1.0
  P  P4101  1  0.01694845  0.99664063  0.22235101  1.0
  P  P4102  1  0.12805957  0.13949778  0.22235101  1.0
  P  P4103  1  0.12805957  0.28235492  0.22235101  1.0
  P  P4104  1  0.12805957  0.42521206  0.22235101  1.0
  P  P4105  1  0.12805957  0.56806920  0.22235101  1.0
  P  P4106  1  0.12805957  0.71092635  0.22235101  1.0
  P  P4107  1  0.12805957  0.85378349  0.22235101  1.0
  P  P4108  1  0.12805957  0.99664063  0.22235101  1.0
  P  P4109  1  0.23917068  0.13949778  0.22235101  1.0
  P  P4110  1  0.23917068  0.28235492  0.22235101  1.0
  P  P4111  1  0.23917068  0.42521206  0.22235101  1.0
  P  P4112  1  0.23917068  0.56806920  0.22235101  1.0
  P  P4113  1  0.23917068  0.71092635  0.22235101  1.0
  P  P4114  1  0.23917068  0.85378349  0.22235101  1.0
  P  P4115  1  0.23917068  0.99664063  0.22235101  1.0
  P  P4116  1  0.35028179  0.13949778  0.22235101  1.0
  P  P4117  1  0.35028179  0.28235492  0.22235101  1.0
  P  P4118  1  0.35028179  0.42521206  0.22235101  1.0
  P  P4119  1  0.35028179  0.56806920  0.22235101  1.0
  P  P4120  1  0.35028179  0.71092635  0.22235101  1.0
  P  P4121  1  0.35028179  0.85378349  0.22235101  1.0
  P  P4122  1  0.35028179  0.99664063  0.22235101  1.0
  P  P4123  1  0.46139290  0.13949778  0.22235101  1.0
  P  P4124  1  0.46139290  0.28235492  0.22235101  1.0
  P  P4125  1  0.46139290  0.42521206  0.22235101  1.0
  P  P4126  1  0.46139290  0.56806920  0.22235101  1.0
  P  P4127  1  0.46139290  0.71092635  0.22235101  1.0
  P  P4128  1  0.46139290  0.85378349  0.22235101  1.0
  P  P4129  1  0.46139290  0.99664063  0.22235101  1.0
  P  P4130  1  0.57250401  0.13949778  0.22235101  1.0
  P  P4131  1  0.57250401  0.28235492  0.22235101  1.0
  P  P4132  1  0.57250401  0.42521206  0.22235101  1.0
  P  P4133  1  0.57250401  0.56806920  0.22235101  1.0
  P  P4134  1  0.57250401  0.71092635  0.22235101  1.0
  P  P4135  1  0.57250401  0.85378349  0.22235101  1.0
  P  P4136  1  0.57250401  0.99664063  0.22235101  1.0
  P  P4137  1  0.68361512  0.13949778  0.22235101  1.0
  P  P4138  1  0.68361512  0.28235492  0.22235101  1.0
  P  P4139  1  0.68361512  0.42521206  0.22235101  1.0
  P  P4140  1  0.68361512  0.56806920  0.22235101  1.0
  P  P4141  1  0.68361512  0.71092635  0.22235101  1.0
  P  P4142  1  0.68361512  0.85378349  0.22235101  1.0
  P  P4143  1  0.68361512  0.99664063  0.22235101  1.0
  P  P4144  1  0.79472623  0.13949778  0.22235101  1.0
  P  P4145  1  0.79472623  0.28235492  0.22235101  1.0
  P  P4146  1  0.79472623  0.42521206  0.22235101  1.0
  P  P4147  1  0.79472623  0.56806920  0.22235101  1.0
  P  P4148  1  0.79472623  0.71092635  0.22235101  1.0
  P  P4149  1  0.79472623  0.85378349  0.22235101  1.0
  P  P4150  1  0.79472623  0.99664063  0.22235101  1.0
  P  P4151  1  0.90583734  0.13949778  0.22235101  1.0
  P  P4152  1  0.90583734  0.28235492  0.22235101  1.0
  P  P4153  1  0.90583734  0.42521206  0.22235101  1.0
  P  P4154  1  0.90583734  0.56806920  0.22235101  1.0
  P  P4155  1  0.90583734  0.71092635  0.22235101  1.0
  P  P4156  1  0.90583734  0.85378349  0.22235101  1.0
  P  P4157  1  0.90583734  0.99664063  0.22235101  1.0
  P  P4158  1  0.08261329  0.09175015  0.30523434  1.0
  P  P4159  1  0.08261329  0.23460730  0.30523434  1.0
  P  P4160  1  0.08261329  0.37746444  0.30523434  1.0
  P  P4161  1  0.08261329  0.52032158  0.30523434  1.0
  P  P4162  1  0.08261329  0.66317872  0.30523434  1.0
  P  P4163  1  0.08261329  0.80603587  0.30523434  1.0
  P  P4164  1  0.08261329  0.94889301  0.30523434  1.0
  P  P4165  1  0.19372440  0.09175015  0.30523434  1.0
  P  P4166  1  0.19372440  0.23460730  0.30523434  1.0
  P  P4167  1  0.19372440  0.37746444  0.30523434  1.0
  P  P4168  1  0.19372440  0.52032158  0.30523434  1.0
  P  P4169  1  0.19372440  0.66317872  0.30523434  1.0
  P  P4170  1  0.19372440  0.80603587  0.30523434  1.0
  P  P4171  1  0.19372440  0.94889301  0.30523434  1.0
  P  P4172  1  0.30483551  0.09175015  0.30523434  1.0
  P  P4173  1  0.30483551  0.23460730  0.30523434  1.0
  P  P4174  1  0.30483551  0.37746444  0.30523434  1.0
  P  P4175  1  0.30483551  0.52032158  0.30523434  1.0
  P  P4176  1  0.30483551  0.66317872  0.30523434  1.0
  P  P4177  1  0.30483551  0.80603587  0.30523434  1.0
  P  P4178  1  0.30483551  0.94889301  0.30523434  1.0
  P  P4179  1  0.41594662  0.09175015  0.30523434  1.0
  P  P4180  1  0.41594662  0.23460730  0.30523434  1.0
  P  P4181  1  0.41594662  0.37746444  0.30523434  1.0
  P  P4182  1  0.41594662  0.52032158  0.30523434  1.0
  P  P4183  1  0.41594662  0.66317872  0.30523434  1.0
  P  P4184  1  0.41594662  0.80603587  0.30523434  1.0
  P  P4185  1  0.41594662  0.94889301  0.30523434  1.0
  P  P4186  1  0.52705773  0.09175015  0.30523434  1.0
  P  P4187  1  0.52705773  0.23460730  0.30523434  1.0
  P  P4188  1  0.52705773  0.37746444  0.30523434  1.0
  P  P4189  1  0.52705773  0.52032158  0.30523434  1.0
  P  P4190  1  0.52705773  0.66317872  0.30523434  1.0
  P  P4191  1  0.52705773  0.80603587  0.30523434  1.0
  P  P4192  1  0.52705773  0.94889301  0.30523434  1.0
  P  P4193  1  0.63816884  0.09175015  0.30523434  1.0
  P  P4194  1  0.63816884  0.23460730  0.30523434  1.0
  P  P4195  1  0.63816884  0.37746444  0.30523434  1.0
  P  P4196  1  0.63816884  0.52032158  0.30523434  1.0
  P  P4197  1  0.63816884  0.66317872  0.30523434  1.0
  P  P4198  1  0.63816884  0.80603587  0.30523434  1.0
  P  P4199  1  0.63816884  0.94889301  0.30523434  1.0
  P  P4200  1  0.74927996  0.09175015  0.30523434  1.0
  P  P4201  1  0.74927996  0.23460730  0.30523434  1.0
  P  P4202  1  0.74927996  0.37746444  0.30523434  1.0
  P  P4203  1  0.74927996  0.52032158  0.30523434  1.0
  P  P4204  1  0.74927996  0.66317872  0.30523434  1.0
  P  P4205  1  0.74927996  0.80603587  0.30523434  1.0
  P  P4206  1  0.74927996  0.94889301  0.30523434  1.0
  P  P4207  1  0.86039107  0.09175015  0.30523434  1.0
  P  P4208  1  0.86039107  0.23460730  0.30523434  1.0
  P  P4209  1  0.86039107  0.37746444  0.30523434  1.0
  P  P4210  1  0.86039107  0.52032158  0.30523434  1.0
  P  P4211  1  0.86039107  0.66317872  0.30523434  1.0
  P  P4212  1  0.86039107  0.80603587  0.30523434  1.0
  P  P4213  1  0.86039107  0.94889301  0.30523434  1.0
  P  P4214  1  0.97150218  0.09175015  0.30523434  1.0
  P  P4215  1  0.97150218  0.23460730  0.30523434  1.0
  P  P4216  1  0.97150218  0.37746444  0.30523434  1.0
  P  P4217  1  0.97150218  0.52032158  0.30523434  1.0
  P  P4218  1  0.97150218  0.66317872  0.30523434  1.0
  P  P4219  1  0.97150218  0.80603587  0.30523434  1.0
  P  P4220  1  0.97150218  0.94889301  0.30523434  1.0
  P  P4221  1  0.10377731  0.10535560  0.35285338  1.0
  P  P4222  1  0.10377731  0.24821274  0.35285338  1.0
  P  P4223  1  0.10377731  0.39106988  0.35285338  1.0
  P  P4224  1  0.10377731  0.53392702  0.35285338  1.0
  P  P4225  1  0.10377731  0.67678417  0.35285338  1.0
  P  P4226  1  0.10377731  0.81964131  0.35285338  1.0
  P  P4227  1  0.10377731  0.96249845  0.35285338  1.0
  P  P4228  1  0.21488842  0.10535560  0.35285338  1.0
  P  P4229  1  0.21488842  0.24821274  0.35285338  1.0
  P  P4230  1  0.21488842  0.39106988  0.35285338  1.0
  P  P4231  1  0.21488842  0.53392702  0.35285338  1.0
  P  P4232  1  0.21488842  0.67678417  0.35285338  1.0
  P  P4233  1  0.21488842  0.81964131  0.35285338  1.0
  P  P4234  1  0.21488842  0.96249845  0.35285338  1.0
  P  P4235  1  0.32599953  0.10535560  0.35285338  1.0
  P  P4236  1  0.32599953  0.24821274  0.35285338  1.0
  P  P4237  1  0.32599953  0.39106988  0.35285338  1.0
  P  P4238  1  0.32599953  0.53392702  0.35285338  1.0
  P  P4239  1  0.32599953  0.67678417  0.35285338  1.0
  P  P4240  1  0.32599953  0.81964131  0.35285338  1.0
  P  P4241  1  0.32599953  0.96249845  0.35285338  1.0
  P  P4242  1  0.43711064  0.10535560  0.35285338  1.0
  P  P4243  1  0.43711064  0.24821274  0.35285338  1.0
  P  P4244  1  0.43711064  0.39106988  0.35285338  1.0
  P  P4245  1  0.43711064  0.53392702  0.35285338  1.0
  P  P4246  1  0.43711064  0.67678417  0.35285338  1.0
  P  P4247  1  0.43711064  0.81964131  0.35285338  1.0
  P  P4248  1  0.43711064  0.96249845  0.35285338  1.0
  P  P4249  1  0.54822175  0.10535560  0.35285338  1.0
  P  P4250  1  0.54822175  0.24821274  0.35285338  1.0
  P  P4251  1  0.54822175  0.39106988  0.35285338  1.0
  P  P4252  1  0.54822175  0.53392702  0.35285338  1.0
  P  P4253  1  0.54822175  0.67678417  0.35285338  1.0
  P  P4254  1  0.54822175  0.81964131  0.35285338  1.0
  P  P4255  1  0.54822175  0.96249845  0.35285338  1.0
  P  P4256  1  0.65933287  0.10535560  0.35285338  1.0
  P  P4257  1  0.65933287  0.24821274  0.35285338  1.0
  P  P4258  1  0.65933287  0.39106988  0.35285338  1.0
  P  P4259  1  0.65933287  0.53392702  0.35285338  1.0
  P  P4260  1  0.65933287  0.67678417  0.35285338  1.0
  P  P4261  1  0.65933287  0.81964131  0.35285338  1.0
  P  P4262  1  0.65933287  0.96249845  0.35285338  1.0
  P  P4263  1  0.77044398  0.10535560  0.35285338  1.0
  P  P4264  1  0.77044398  0.24821274  0.35285338  1.0
  P  P4265  1  0.77044398  0.39106988  0.35285338  1.0
  P  P4266  1  0.77044398  0.53392702  0.35285338  1.0
  P  P4267  1  0.77044398  0.67678417  0.35285338  1.0
  P  P4268  1  0.77044398  0.81964131  0.35285338  1.0
  P  P4269  1  0.77044398  0.96249845  0.35285338  1.0
  P  P4270  1  0.88155509  0.10535560  0.35285338  1.0
  P  P4271  1  0.88155509  0.24821274  0.35285338  1.0
  P  P4272  1  0.88155509  0.39106988  0.35285338  1.0
  P  P4273  1  0.88155509  0.53392702  0.35285338  1.0
  P  P4274  1  0.88155509  0.67678417  0.35285338  1.0
  P  P4275  1  0.88155509  0.81964131  0.35285338  1.0
  P  P4276  1  0.88155509  0.96249845  0.35285338  1.0
  P  P4277  1  0.99266620  0.10535560  0.35285338  1.0
  P  P4278  1  0.99266620  0.24821274  0.35285338  1.0
  P  P4279  1  0.99266620  0.39106988  0.35285338  1.0
  P  P4280  1  0.99266620  0.53392702  0.35285338  1.0
  P  P4281  1  0.99266620  0.67678417  0.35285338  1.0
  P  P4282  1  0.99266620  0.81964131  0.35285338  1.0
  P  P4283  1  0.99266620  0.96249845  0.35285338  1.0
  P  P4284  1  0.06144927  0.07814471  0.25761529  1.0
  P  P4285  1  0.06144927  0.22100185  0.25761529  1.0
  P  P4286  1  0.06144927  0.36385900  0.25761529  1.0
  P  P4287  1  0.06144927  0.50671614  0.25761529  1.0
  P  P4288  1  0.06144927  0.64957328  0.25761529  1.0
  P  P4289  1  0.06144927  0.79243043  0.25761529  1.0
  P  P4290  1  0.06144927  0.93528757  0.25761529  1.0
  P  P4291  1  0.17256038  0.07814471  0.25761529  1.0
  P  P4292  1  0.17256038  0.22100185  0.25761529  1.0
  P  P4293  1  0.17256038  0.36385900  0.25761529  1.0
  P  P4294  1  0.17256038  0.50671614  0.25761529  1.0
  P  P4295  1  0.17256038  0.64957328  0.25761529  1.0
  P  P4296  1  0.17256038  0.79243043  0.25761529  1.0
  P  P4297  1  0.17256038  0.93528757  0.25761529  1.0
  P  P4298  1  0.28367149  0.07814471  0.25761529  1.0
  P  P4299  1  0.28367149  0.22100185  0.25761529  1.0
  P  P4300  1  0.28367149  0.36385900  0.25761529  1.0
  P  P4301  1  0.28367149  0.50671614  0.25761529  1.0
  P  P4302  1  0.28367149  0.64957328  0.25761529  1.0
  P  P4303  1  0.28367149  0.79243043  0.25761529  1.0
  P  P4304  1  0.28367149  0.93528757  0.25761529  1.0
  P  P4305  1  0.39478260  0.07814471  0.25761529  1.0
  P  P4306  1  0.39478260  0.22100185  0.25761529  1.0
  P  P4307  1  0.39478260  0.36385900  0.25761529  1.0
  P  P4308  1  0.39478260  0.50671614  0.25761529  1.0
  P  P4309  1  0.39478260  0.64957328  0.25761529  1.0
  P  P4310  1  0.39478260  0.79243043  0.25761529  1.0
  P  P4311  1  0.39478260  0.93528757  0.25761529  1.0
  P  P4312  1  0.50589371  0.07814471  0.25761529  1.0
  P  P4313  1  0.50589371  0.22100185  0.25761529  1.0
  P  P4314  1  0.50589371  0.36385900  0.25761529  1.0
  P  P4315  1  0.50589371  0.50671614  0.25761529  1.0
  P  P4316  1  0.50589371  0.64957328  0.25761529  1.0
  P  P4317  1  0.50589371  0.79243043  0.25761529  1.0
  P  P4318  1  0.50589371  0.93528757  0.25761529  1.0
  P  P4319  1  0.61700482  0.07814471  0.25761529  1.0
  P  P4320  1  0.61700482  0.22100185  0.25761529  1.0
  P  P4321  1  0.61700482  0.36385900  0.25761529  1.0
  P  P4322  1  0.61700482  0.50671614  0.25761529  1.0
  P  P4323  1  0.61700482  0.64957328  0.25761529  1.0
  P  P4324  1  0.61700482  0.79243043  0.25761529  1.0
  P  P4325  1  0.61700482  0.93528757  0.25761529  1.0
  P  P4326  1  0.72811593  0.07814471  0.25761529  1.0
  P  P4327  1  0.72811593  0.22100185  0.25761529  1.0
  P  P4328  1  0.72811593  0.36385900  0.25761529  1.0
  P  P4329  1  0.72811593  0.50671614  0.25761529  1.0
  P  P4330  1  0.72811593  0.64957328  0.25761529  1.0
  P  P4331  1  0.72811593  0.79243043  0.25761529  1.0
  P  P4332  1  0.72811593  0.93528757  0.25761529  1.0
  P  P4333  1  0.83922705  0.07814471  0.25761529  1.0
  P  P4334  1  0.83922705  0.22100185  0.25761529  1.0
  P  P4335  1  0.83922705  0.36385900  0.25761529  1.0
  P  P4336  1  0.83922705  0.50671614  0.25761529  1.0
  P  P4337  1  0.83922705  0.64957328  0.25761529  1.0
  P  P4338  1  0.83922705  0.79243043  0.25761529  1.0
  P  P4339  1  0.83922705  0.93528757  0.25761529  1.0
  P  P4340  1  0.95033816  0.07814471  0.25761529  1.0
  P  P4341  1  0.95033816  0.22100185  0.25761529  1.0
  P  P4342  1  0.95033816  0.36385900  0.25761529  1.0
  P  P4343  1  0.95033816  0.50671614  0.25761529  1.0
  P  P4344  1  0.95033816  0.64957328  0.25761529  1.0
  P  P4345  1  0.95033816  0.79243043  0.25761529  1.0
  P  P4346  1  0.95033816  0.93528757  0.25761529  1.0
  P  P4347  1  0.09198989  0.09192332  0.26619424  1.0
  P  P4348  1  0.09198989  0.23478046  0.26619424  1.0
  P  P4349  1  0.09198989  0.37763760  0.26619424  1.0
  P  P4350  1  0.09198989  0.52049474  0.26619424  1.0
  P  P4351  1  0.09198989  0.66335189  0.26619424  1.0
  P  P4352  1  0.09198989  0.80620903  0.26619424  1.0
  P  P4353  1  0.09198989  0.94906617  0.26619424  1.0
  P  P4354  1  0.20310100  0.09192332  0.26619424  1.0
  P  P4355  1  0.20310100  0.23478046  0.26619424  1.0
  P  P4356  1  0.20310100  0.37763760  0.26619424  1.0
  P  P4357  1  0.20310100  0.52049474  0.26619424  1.0
  P  P4358  1  0.20310100  0.66335189  0.26619424  1.0
  P  P4359  1  0.20310100  0.80620903  0.26619424  1.0
  P  P4360  1  0.20310100  0.94906617  0.26619424  1.0
  P  P4361  1  0.31421211  0.09192332  0.26619424  1.0
  P  P4362  1  0.31421211  0.23478046  0.26619424  1.0
  P  P4363  1  0.31421211  0.37763760  0.26619424  1.0
  P  P4364  1  0.31421211  0.52049474  0.26619424  1.0
  P  P4365  1  0.31421211  0.66335189  0.26619424  1.0
  P  P4366  1  0.31421211  0.80620903  0.26619424  1.0
  P  P4367  1  0.31421211  0.94906617  0.26619424  1.0
  P  P4368  1  0.42532322  0.09192332  0.26619424  1.0
  P  P4369  1  0.42532322  0.23478046  0.26619424  1.0
  P  P4370  1  0.42532322  0.37763760  0.26619424  1.0
  P  P4371  1  0.42532322  0.52049474  0.26619424  1.0
  P  P4372  1  0.42532322  0.66335189  0.26619424  1.0
  P  P4373  1  0.42532322  0.80620903  0.26619424  1.0
  P  P4374  1  0.42532322  0.94906617  0.26619424  1.0
  P  P4375  1  0.53643433  0.09192332  0.26619424  1.0
  P  P4376  1  0.53643433  0.23478046  0.26619424  1.0
  P  P4377  1  0.53643433  0.37763760  0.26619424  1.0
  P  P4378  1  0.53643433  0.52049474  0.26619424  1.0
  P  P4379  1  0.53643433  0.66335189  0.26619424  1.0
  P  P4380  1  0.53643433  0.80620903  0.26619424  1.0
  P  P4381  1  0.53643433  0.94906617  0.26619424  1.0
  P  P4382  1  0.64754544  0.09192332  0.26619424  1.0
  P  P4383  1  0.64754544  0.23478046  0.26619424  1.0
  P  P4384  1  0.64754544  0.37763760  0.26619424  1.0
  P  P4385  1  0.64754544  0.52049474  0.26619424  1.0
  P  P4386  1  0.64754544  0.66335189  0.26619424  1.0
  P  P4387  1  0.64754544  0.80620903  0.26619424  1.0
  P  P4388  1  0.64754544  0.94906617  0.26619424  1.0
  P  P4389  1  0.75865655  0.09192332  0.26619424  1.0
  P  P4390  1  0.75865655  0.23478046  0.26619424  1.0
  P  P4391  1  0.75865655  0.37763760  0.26619424  1.0
  P  P4392  1  0.75865655  0.52049474  0.26619424  1.0
  P  P4393  1  0.75865655  0.66335189  0.26619424  1.0
  P  P4394  1  0.75865655  0.80620903  0.26619424  1.0
  P  P4395  1  0.75865655  0.94906617  0.26619424  1.0
  P  P4396  1  0.86976766  0.09192332  0.26619424  1.0
  P  P4397  1  0.86976766  0.23478046  0.26619424  1.0
  P  P4398  1  0.86976766  0.37763760  0.26619424  1.0
  P  P4399  1  0.86976766  0.52049474  0.26619424  1.0
  P  P4400  1  0.86976766  0.66335189  0.26619424  1.0
  P  P4401  1  0.86976766  0.80620903  0.26619424  1.0
  P  P4402  1  0.86976766  0.94906617  0.26619424  1.0
  P  P4403  1  0.98087877  0.09192332  0.26619424  1.0
  P  P4404  1  0.98087877  0.23478046  0.26619424  1.0
  P  P4405  1  0.98087877  0.37763760  0.26619424  1.0
  P  P4406  1  0.98087877  0.52049474  0.26619424  1.0
  P  P4407  1  0.98087877  0.66335189  0.26619424  1.0
  P  P4408  1  0.98087877  0.80620903  0.26619424  1.0
  P  P4409  1  0.98087877  0.94906617  0.26619424  1.0
  P  P4410  1  0.00204280  0.10552876  0.31381328  1.0
  P  P4411  1  0.00204280  0.24838590  0.31381328  1.0
  P  P4412  1  0.00204280  0.39124304  0.31381328  1.0
  P  P4413  1  0.00204280  0.53410019  0.31381328  1.0
  P  P4414  1  0.00204280  0.67695733  0.31381328  1.0
  P  P4415  1  0.00204280  0.81981447  0.31381328  1.0
  P  P4416  1  0.00204280  0.96267162  0.31381328  1.0
  P  P4417  1  0.11315391  0.10552876  0.31381328  1.0
  P  P4418  1  0.11315391  0.24838590  0.31381328  1.0
  P  P4419  1  0.11315391  0.39124304  0.31381328  1.0
  P  P4420  1  0.11315391  0.53410019  0.31381328  1.0
  P  P4421  1  0.11315391  0.67695733  0.31381328  1.0
  P  P4422  1  0.11315391  0.81981447  0.31381328  1.0
  P  P4423  1  0.11315391  0.96267162  0.31381328  1.0
  P  P4424  1  0.22426502  0.10552876  0.31381328  1.0
  P  P4425  1  0.22426502  0.24838590  0.31381328  1.0
  P  P4426  1  0.22426502  0.39124304  0.31381328  1.0
  P  P4427  1  0.22426502  0.53410019  0.31381328  1.0
  P  P4428  1  0.22426502  0.67695733  0.31381328  1.0
  P  P4429  1  0.22426502  0.81981447  0.31381328  1.0
  P  P4430  1  0.22426502  0.96267162  0.31381328  1.0
  P  P4431  1  0.33537613  0.10552876  0.31381328  1.0
  P  P4432  1  0.33537613  0.24838590  0.31381328  1.0
  P  P4433  1  0.33537613  0.39124304  0.31381328  1.0
  P  P4434  1  0.33537613  0.53410019  0.31381328  1.0
  P  P4435  1  0.33537613  0.67695733  0.31381328  1.0
  P  P4436  1  0.33537613  0.81981447  0.31381328  1.0
  P  P4437  1  0.33537613  0.96267162  0.31381328  1.0
  P  P4438  1  0.44648724  0.10552876  0.31381328  1.0
  P  P4439  1  0.44648724  0.24838590  0.31381328  1.0
  P  P4440  1  0.44648724  0.39124304  0.31381328  1.0
  P  P4441  1  0.44648724  0.53410019  0.31381328  1.0
  P  P4442  1  0.44648724  0.67695733  0.31381328  1.0
  P  P4443  1  0.44648724  0.81981447  0.31381328  1.0
  P  P4444  1  0.44648724  0.96267162  0.31381328  1.0
  P  P4445  1  0.55759835  0.10552876  0.31381328  1.0
  P  P4446  1  0.55759835  0.24838590  0.31381328  1.0
  P  P4447  1  0.55759835  0.39124304  0.31381328  1.0
  P  P4448  1  0.55759835  0.53410019  0.31381328  1.0
  P  P4449  1  0.55759835  0.67695733  0.31381328  1.0
  P  P4450  1  0.55759835  0.81981447  0.31381328  1.0
  P  P4451  1  0.55759835  0.96267162  0.31381328  1.0
  P  P4452  1  0.66870946  0.10552876  0.31381328  1.0
  P  P4453  1  0.66870946  0.24838590  0.31381328  1.0
  P  P4454  1  0.66870946  0.39124304  0.31381328  1.0
  P  P4455  1  0.66870946  0.53410019  0.31381328  1.0
  P  P4456  1  0.66870946  0.67695733  0.31381328  1.0
  P  P4457  1  0.66870946  0.81981447  0.31381328  1.0
  P  P4458  1  0.66870946  0.96267162  0.31381328  1.0
  P  P4459  1  0.77982057  0.10552876  0.31381328  1.0
  P  P4460  1  0.77982057  0.24838590  0.31381328  1.0
  P  P4461  1  0.77982057  0.39124304  0.31381328  1.0
  P  P4462  1  0.77982057  0.53410019  0.31381328  1.0
  P  P4463  1  0.77982057  0.67695733  0.31381328  1.0
  P  P4464  1  0.77982057  0.81981447  0.31381328  1.0
  P  P4465  1  0.77982057  0.96267162  0.31381328  1.0
  P  P4466  1  0.89093168  0.10552876  0.31381328  1.0
  P  P4467  1  0.89093168  0.24838590  0.31381328  1.0
  P  P4468  1  0.89093168  0.39124304  0.31381328  1.0
  P  P4469  1  0.89093168  0.53410019  0.31381328  1.0
  P  P4470  1  0.89093168  0.67695733  0.31381328  1.0
  P  P4471  1  0.89093168  0.81981447  0.31381328  1.0
  P  P4472  1  0.89093168  0.96267162  0.31381328  1.0
  P  P4473  1  0.07082586  0.07831787  0.21857519  1.0
  P  P4474  1  0.07082586  0.22117502  0.21857519  1.0
  P  P4475  1  0.07082586  0.36403216  0.21857519  1.0
  P  P4476  1  0.07082586  0.50688930  0.21857519  1.0
  P  P4477  1  0.07082586  0.64974645  0.21857519  1.0
  P  P4478  1  0.07082586  0.79260359  0.21857519  1.0
  P  P4479  1  0.07082586  0.93546073  0.21857519  1.0
  P  P4480  1  0.18193698  0.07831787  0.21857519  1.0
  P  P4481  1  0.18193698  0.22117502  0.21857519  1.0
  P  P4482  1  0.18193698  0.36403216  0.21857519  1.0
  P  P4483  1  0.18193698  0.50688930  0.21857519  1.0
  P  P4484  1  0.18193698  0.64974645  0.21857519  1.0
  P  P4485  1  0.18193698  0.79260359  0.21857519  1.0
  P  P4486  1  0.18193698  0.93546073  0.21857519  1.0
  P  P4487  1  0.29304809  0.07831787  0.21857519  1.0
  P  P4488  1  0.29304809  0.22117502  0.21857519  1.0
  P  P4489  1  0.29304809  0.36403216  0.21857519  1.0
  P  P4490  1  0.29304809  0.50688930  0.21857519  1.0
  P  P4491  1  0.29304809  0.64974645  0.21857519  1.0
  P  P4492  1  0.29304809  0.79260359  0.21857519  1.0
  P  P4493  1  0.29304809  0.93546073  0.21857519  1.0
  P  P4494  1  0.40415920  0.07831787  0.21857519  1.0
  P  P4495  1  0.40415920  0.22117502  0.21857519  1.0
  P  P4496  1  0.40415920  0.36403216  0.21857519  1.0
  P  P4497  1  0.40415920  0.50688930  0.21857519  1.0
  P  P4498  1  0.40415920  0.64974645  0.21857519  1.0
  P  P4499  1  0.40415920  0.79260359  0.21857519  1.0
  P  P4500  1  0.40415920  0.93546073  0.21857519  1.0
  P  P4501  1  0.51527031  0.07831787  0.21857519  1.0
  P  P4502  1  0.51527031  0.22117502  0.21857519  1.0
  P  P4503  1  0.51527031  0.36403216  0.21857519  1.0
  P  P4504  1  0.51527031  0.50688930  0.21857519  1.0
  P  P4505  1  0.51527031  0.64974645  0.21857519  1.0
  P  P4506  1  0.51527031  0.79260359  0.21857519  1.0
  P  P4507  1  0.51527031  0.93546073  0.21857519  1.0
  P  P4508  1  0.62638142  0.07831787  0.21857519  1.0
  P  P4509  1  0.62638142  0.22117502  0.21857519  1.0
  P  P4510  1  0.62638142  0.36403216  0.21857519  1.0
  P  P4511  1  0.62638142  0.50688930  0.21857519  1.0
  P  P4512  1  0.62638142  0.64974645  0.21857519  1.0
  P  P4513  1  0.62638142  0.79260359  0.21857519  1.0
  P  P4514  1  0.62638142  0.93546073  0.21857519  1.0
  P  P4515  1  0.73749253  0.07831787  0.21857519  1.0
  P  P4516  1  0.73749253  0.22117502  0.21857519  1.0
  P  P4517  1  0.73749253  0.36403216  0.21857519  1.0
  P  P4518  1  0.73749253  0.50688930  0.21857519  1.0
  P  P4519  1  0.73749253  0.64974645  0.21857519  1.0
  P  P4520  1  0.73749253  0.79260359  0.21857519  1.0
  P  P4521  1  0.73749253  0.93546073  0.21857519  1.0
  P  P4522  1  0.84860364  0.07831787  0.21857519  1.0
  P  P4523  1  0.84860364  0.22117502  0.21857519  1.0
  P  P4524  1  0.84860364  0.36403216  0.21857519  1.0
  P  P4525  1  0.84860364  0.50688930  0.21857519  1.0
  P  P4526  1  0.84860364  0.64974645  0.21857519  1.0
  P  P4527  1  0.84860364  0.79260359  0.21857519  1.0
  P  P4528  1  0.84860364  0.93546073  0.21857519  1.0
  P  P4529  1  0.95971475  0.07831787  0.21857519  1.0
  P  P4530  1  0.95971475  0.22117502  0.21857519  1.0
  P  P4531  1  0.95971475  0.36403216  0.21857519  1.0
  P  P4532  1  0.95971475  0.50688930  0.21857519  1.0
  P  P4533  1  0.95971475  0.64974645  0.21857519  1.0
  P  P4534  1  0.95971475  0.79260359  0.21857519  1.0
  P  P4535  1  0.95971475  0.93546073  0.21857519  1.0
  P  P4536  1  0.04997964  0.08113442  0.42976854  1.0
  P  P4537  1  0.04997964  0.22399156  0.42976854  1.0
  P  P4538  1  0.04997964  0.36684870  0.42976854  1.0
  P  P4539  1  0.04997964  0.50970585  0.42976854  1.0
  P  P4540  1  0.04997964  0.65256299  0.42976854  1.0
  P  P4541  1  0.04997964  0.79542013  0.42976854  1.0
  P  P4542  1  0.04997964  0.93827728  0.42976854  1.0
  P  P4543  1  0.16109075  0.08113442  0.42976854  1.0
  P  P4544  1  0.16109075  0.22399156  0.42976854  1.0
  P  P4545  1  0.16109075  0.36684870  0.42976854  1.0
  P  P4546  1  0.16109075  0.50970585  0.42976854  1.0
  P  P4547  1  0.16109075  0.65256299  0.42976854  1.0
  P  P4548  1  0.16109075  0.79542013  0.42976854  1.0
  P  P4549  1  0.16109075  0.93827728  0.42976854  1.0
  P  P4550  1  0.27220186  0.08113442  0.42976854  1.0
  P  P4551  1  0.27220186  0.22399156  0.42976854  1.0
  P  P4552  1  0.27220186  0.36684870  0.42976854  1.0
  P  P4553  1  0.27220186  0.50970585  0.42976854  1.0
  P  P4554  1  0.27220186  0.65256299  0.42976854  1.0
  P  P4555  1  0.27220186  0.79542013  0.42976854  1.0
  P  P4556  1  0.27220186  0.93827728  0.42976854  1.0
  P  P4557  1  0.38331297  0.08113442  0.42976854  1.0
  P  P4558  1  0.38331297  0.22399156  0.42976854  1.0
  P  P4559  1  0.38331297  0.36684870  0.42976854  1.0
  P  P4560  1  0.38331297  0.50970585  0.42976854  1.0
  P  P4561  1  0.38331297  0.65256299  0.42976854  1.0
  P  P4562  1  0.38331297  0.79542013  0.42976854  1.0
  P  P4563  1  0.38331297  0.93827728  0.42976854  1.0
  P  P4564  1  0.49442408  0.08113442  0.42976854  1.0
  P  P4565  1  0.49442408  0.22399156  0.42976854  1.0
  P  P4566  1  0.49442408  0.36684870  0.42976854  1.0
  P  P4567  1  0.49442408  0.50970585  0.42976854  1.0
  P  P4568  1  0.49442408  0.65256299  0.42976854  1.0
  P  P4569  1  0.49442408  0.79542013  0.42976854  1.0
  P  P4570  1  0.49442408  0.93827728  0.42976854  1.0
  P  P4571  1  0.60553519  0.08113442  0.42976854  1.0
  P  P4572  1  0.60553519  0.22399156  0.42976854  1.0
  P  P4573  1  0.60553519  0.36684870  0.42976854  1.0
  P  P4574  1  0.60553519  0.50970585  0.42976854  1.0
  P  P4575  1  0.60553519  0.65256299  0.42976854  1.0
  P  P4576  1  0.60553519  0.79542013  0.42976854  1.0
  P  P4577  1  0.60553519  0.93827728  0.42976854  1.0
  P  P4578  1  0.71664630  0.08113442  0.42976854  1.0
  P  P4579  1  0.71664630  0.22399156  0.42976854  1.0
  P  P4580  1  0.71664630  0.36684870  0.42976854  1.0
  P  P4581  1  0.71664630  0.50970585  0.42976854  1.0
  P  P4582  1  0.71664630  0.65256299  0.42976854  1.0
  P  P4583  1  0.71664630  0.79542013  0.42976854  1.0
  P  P4584  1  0.71664630  0.93827728  0.42976854  1.0
  P  P4585  1  0.82775741  0.08113442  0.42976854  1.0
  P  P4586  1  0.82775741  0.22399156  0.42976854  1.0
  P  P4587  1  0.82775741  0.36684870  0.42976854  1.0
  P  P4588  1  0.82775741  0.50970585  0.42976854  1.0
  P  P4589  1  0.82775741  0.65256299  0.42976854  1.0
  P  P4590  1  0.82775741  0.79542013  0.42976854  1.0
  P  P4591  1  0.82775741  0.93827728  0.42976854  1.0
  P  P4592  1  0.93886853  0.08113442  0.42976854  1.0
  P  P4593  1  0.93886853  0.22399156  0.42976854  1.0
  P  P4594  1  0.93886853  0.36684870  0.42976854  1.0
  P  P4595  1  0.93886853  0.50970585  0.42976854  1.0
  P  P4596  1  0.93886853  0.65256299  0.42976854  1.0
  P  P4597  1  0.93886853  0.79542013  0.42976854  1.0
  P  P4598  1  0.93886853  0.93827728  0.42976854  1.0
  P  P4599  1  0.07114366  0.09473986  0.47738758  1.0
  P  P4600  1  0.07114366  0.23759700  0.47738758  1.0
  P  P4601  1  0.07114366  0.38045415  0.47738758  1.0
  P  P4602  1  0.07114366  0.52331129  0.47738758  1.0
  P  P4603  1  0.07114366  0.66616843  0.47738758  1.0
  P  P4604  1  0.07114366  0.80902558  0.47738758  1.0
  P  P4605  1  0.07114366  0.95188272  0.47738758  1.0
  P  P4606  1  0.18225477  0.09473986  0.47738758  1.0
  P  P4607  1  0.18225477  0.23759700  0.47738758  1.0
  P  P4608  1  0.18225477  0.38045415  0.47738758  1.0
  P  P4609  1  0.18225477  0.52331129  0.47738758  1.0
  P  P4610  1  0.18225477  0.66616843  0.47738758  1.0
  P  P4611  1  0.18225477  0.80902558  0.47738758  1.0
  P  P4612  1  0.18225477  0.95188272  0.47738758  1.0
  P  P4613  1  0.29336588  0.09473986  0.47738758  1.0
  P  P4614  1  0.29336588  0.23759700  0.47738758  1.0
  P  P4615  1  0.29336588  0.38045415  0.47738758  1.0
  P  P4616  1  0.29336588  0.52331129  0.47738758  1.0
  P  P4617  1  0.29336588  0.66616843  0.47738758  1.0
  P  P4618  1  0.29336588  0.80902558  0.47738758  1.0
  P  P4619  1  0.29336588  0.95188272  0.47738758  1.0
  P  P4620  1  0.40447699  0.09473986  0.47738758  1.0
  P  P4621  1  0.40447699  0.23759700  0.47738758  1.0
  P  P4622  1  0.40447699  0.38045415  0.47738758  1.0
  P  P4623  1  0.40447699  0.52331129  0.47738758  1.0
  P  P4624  1  0.40447699  0.66616843  0.47738758  1.0
  P  P4625  1  0.40447699  0.80902558  0.47738758  1.0
  P  P4626  1  0.40447699  0.95188272  0.47738758  1.0
  P  P4627  1  0.51558810  0.09473986  0.47738758  1.0
  P  P4628  1  0.51558810  0.23759700  0.47738758  1.0
  P  P4629  1  0.51558810  0.38045415  0.47738758  1.0
  P  P4630  1  0.51558810  0.52331129  0.47738758  1.0
  P  P4631  1  0.51558810  0.66616843  0.47738758  1.0
  P  P4632  1  0.51558810  0.80902558  0.47738758  1.0
  P  P4633  1  0.51558810  0.95188272  0.47738758  1.0
  P  P4634  1  0.62669921  0.09473986  0.47738758  1.0
  P  P4635  1  0.62669921  0.23759700  0.47738758  1.0
  P  P4636  1  0.62669921  0.38045415  0.47738758  1.0
  P  P4637  1  0.62669921  0.52331129  0.47738758  1.0
  P  P4638  1  0.62669921  0.66616843  0.47738758  1.0
  P  P4639  1  0.62669921  0.80902558  0.47738758  1.0
  P  P4640  1  0.62669921  0.95188272  0.47738758  1.0
  P  P4641  1  0.73781032  0.09473986  0.47738758  1.0
  P  P4642  1  0.73781032  0.23759700  0.47738758  1.0
  P  P4643  1  0.73781032  0.38045415  0.47738758  1.0
  P  P4644  1  0.73781032  0.52331129  0.47738758  1.0
  P  P4645  1  0.73781032  0.66616843  0.47738758  1.0
  P  P4646  1  0.73781032  0.80902558  0.47738758  1.0
  P  P4647  1  0.73781032  0.95188272  0.47738758  1.0
  P  P4648  1  0.84892144  0.09473986  0.47738758  1.0
  P  P4649  1  0.84892144  0.23759700  0.47738758  1.0
  P  P4650  1  0.84892144  0.38045415  0.47738758  1.0
  P  P4651  1  0.84892144  0.52331129  0.47738758  1.0
  P  P4652  1  0.84892144  0.66616843  0.47738758  1.0
  P  P4653  1  0.84892144  0.80902558  0.47738758  1.0
  P  P4654  1  0.84892144  0.95188272  0.47738758  1.0
  P  P4655  1  0.96003255  0.09473986  0.47738758  1.0
  P  P4656  1  0.96003255  0.23759700  0.47738758  1.0
  P  P4657  1  0.96003255  0.38045415  0.47738758  1.0
  P  P4658  1  0.96003255  0.52331129  0.47738758  1.0
  P  P4659  1  0.96003255  0.66616843  0.47738758  1.0
  P  P4660  1  0.96003255  0.80902558  0.47738758  1.0
  P  P4661  1  0.96003255  0.95188272  0.47738758  1.0
  P  P4662  1  0.02881562  0.06752898  0.38214949  1.0
  P  P4663  1  0.02881562  0.21038612  0.38214949  1.0
  P  P4664  1  0.02881562  0.35324326  0.38214949  1.0
  P  P4665  1  0.02881562  0.49610041  0.38214949  1.0
  P  P4666  1  0.02881562  0.63895755  0.38214949  1.0
  P  P4667  1  0.02881562  0.78181469  0.38214949  1.0
  P  P4668  1  0.02881562  0.92467183  0.38214949  1.0
  P  P4669  1  0.13992673  0.06752898  0.38214949  1.0
  P  P4670  1  0.13992673  0.21038612  0.38214949  1.0
  P  P4671  1  0.13992673  0.35324326  0.38214949  1.0
  P  P4672  1  0.13992673  0.49610041  0.38214949  1.0
  P  P4673  1  0.13992673  0.63895755  0.38214949  1.0
  P  P4674  1  0.13992673  0.78181469  0.38214949  1.0
  P  P4675  1  0.13992673  0.92467183  0.38214949  1.0
  P  P4676  1  0.25103784  0.06752898  0.38214949  1.0
  P  P4677  1  0.25103784  0.21038612  0.38214949  1.0
  P  P4678  1  0.25103784  0.35324326  0.38214949  1.0
  P  P4679  1  0.25103784  0.49610041  0.38214949  1.0
  P  P4680  1  0.25103784  0.63895755  0.38214949  1.0
  P  P4681  1  0.25103784  0.78181469  0.38214949  1.0
  P  P4682  1  0.25103784  0.92467183  0.38214949  1.0
  P  P4683  1  0.36214895  0.06752898  0.38214949  1.0
  P  P4684  1  0.36214895  0.21038612  0.38214949  1.0
  P  P4685  1  0.36214895  0.35324326  0.38214949  1.0
  P  P4686  1  0.36214895  0.49610041  0.38214949  1.0
  P  P4687  1  0.36214895  0.63895755  0.38214949  1.0
  P  P4688  1  0.36214895  0.78181469  0.38214949  1.0
  P  P4689  1  0.36214895  0.92467183  0.38214949  1.0
  P  P4690  1  0.47326006  0.06752898  0.38214949  1.0
  P  P4691  1  0.47326006  0.21038612  0.38214949  1.0
  P  P4692  1  0.47326006  0.35324326  0.38214949  1.0
  P  P4693  1  0.47326006  0.49610041  0.38214949  1.0
  P  P4694  1  0.47326006  0.63895755  0.38214949  1.0
  P  P4695  1  0.47326006  0.78181469  0.38214949  1.0
  P  P4696  1  0.47326006  0.92467183  0.38214949  1.0
  P  P4697  1  0.58437117  0.06752898  0.38214949  1.0
  P  P4698  1  0.58437117  0.21038612  0.38214949  1.0
  P  P4699  1  0.58437117  0.35324326  0.38214949  1.0
  P  P4700  1  0.58437117  0.49610041  0.38214949  1.0
  P  P4701  1  0.58437117  0.63895755  0.38214949  1.0
  P  P4702  1  0.58437117  0.78181469  0.38214949  1.0
  P  P4703  1  0.58437117  0.92467183  0.38214949  1.0
  P  P4704  1  0.69548228  0.06752898  0.38214949  1.0
  P  P4705  1  0.69548228  0.21038612  0.38214949  1.0
  P  P4706  1  0.69548228  0.35324326  0.38214949  1.0
  P  P4707  1  0.69548228  0.49610041  0.38214949  1.0
  P  P4708  1  0.69548228  0.63895755  0.38214949  1.0
  P  P4709  1  0.69548228  0.78181469  0.38214949  1.0
  P  P4710  1  0.69548228  0.92467183  0.38214949  1.0
  P  P4711  1  0.80659339  0.06752898  0.38214949  1.0
  P  P4712  1  0.80659339  0.21038612  0.38214949  1.0
  P  P4713  1  0.80659339  0.35324326  0.38214949  1.0
  P  P4714  1  0.80659339  0.49610041  0.38214949  1.0
  P  P4715  1  0.80659339  0.63895755  0.38214949  1.0
  P  P4716  1  0.80659339  0.78181469  0.38214949  1.0
  P  P4717  1  0.80659339  0.92467183  0.38214949  1.0
  P  P4718  1  0.91770450  0.06752898  0.38214949  1.0
  P  P4719  1  0.91770450  0.21038612  0.38214949  1.0
  P  P4720  1  0.91770450  0.35324326  0.38214949  1.0
  P  P4721  1  0.91770450  0.49610041  0.38214949  1.0
  P  P4722  1  0.91770450  0.63895755  0.38214949  1.0
  P  P4723  1  0.91770450  0.78181469  0.38214949  1.0
  P  P4724  1  0.91770450  0.92467183  0.38214949  1.0
  P  P4725  1  0.02938544  0.04131456  0.42737432  1.0
  P  P4726  1  0.02938544  0.18417170  0.42737432  1.0
  P  P4727  1  0.02938544  0.32702885  0.42737432  1.0
  P  P4728  1  0.02938544  0.46988599  0.42737432  1.0
  P  P4729  1  0.02938544  0.61274313  0.42737432  1.0
  P  P4730  1  0.02938544  0.75560027  0.42737432  1.0
  P  P4731  1  0.02938544  0.89845742  0.42737432  1.0
  P  P4732  1  0.14049655  0.04131456  0.42737432  1.0
  P  P4733  1  0.14049655  0.18417170  0.42737432  1.0
  P  P4734  1  0.14049655  0.32702885  0.42737432  1.0
  P  P4735  1  0.14049655  0.46988599  0.42737432  1.0
  P  P4736  1  0.14049655  0.61274313  0.42737432  1.0
  P  P4737  1  0.14049655  0.75560027  0.42737432  1.0
  P  P4738  1  0.14049655  0.89845742  0.42737432  1.0
  P  P4739  1  0.25160766  0.04131456  0.42737432  1.0
  P  P4740  1  0.25160766  0.18417170  0.42737432  1.0
  P  P4741  1  0.25160766  0.32702885  0.42737432  1.0
  P  P4742  1  0.25160766  0.46988599  0.42737432  1.0
  P  P4743  1  0.25160766  0.61274313  0.42737432  1.0
  P  P4744  1  0.25160766  0.75560027  0.42737432  1.0
  P  P4745  1  0.25160766  0.89845742  0.42737432  1.0
  P  P4746  1  0.36271878  0.04131456  0.42737432  1.0
  P  P4747  1  0.36271878  0.18417170  0.42737432  1.0
  P  P4748  1  0.36271878  0.32702885  0.42737432  1.0
  P  P4749  1  0.36271878  0.46988599  0.42737432  1.0
  P  P4750  1  0.36271878  0.61274313  0.42737432  1.0
  P  P4751  1  0.36271878  0.75560027  0.42737432  1.0
  P  P4752  1  0.36271878  0.89845742  0.42737432  1.0
  P  P4753  1  0.47382989  0.04131456  0.42737432  1.0
  P  P4754  1  0.47382989  0.18417170  0.42737432  1.0
  P  P4755  1  0.47382989  0.32702885  0.42737432  1.0
  P  P4756  1  0.47382989  0.46988599  0.42737432  1.0
  P  P4757  1  0.47382989  0.61274313  0.42737432  1.0
  P  P4758  1  0.47382989  0.75560027  0.42737432  1.0
  P  P4759  1  0.47382989  0.89845742  0.42737432  1.0
  P  P4760  1  0.58494100  0.04131456  0.42737432  1.0
  P  P4761  1  0.58494100  0.18417170  0.42737432  1.0
  P  P4762  1  0.58494100  0.32702885  0.42737432  1.0
  P  P4763  1  0.58494100  0.46988599  0.42737432  1.0
  P  P4764  1  0.58494100  0.61274313  0.42737432  1.0
  P  P4765  1  0.58494100  0.75560027  0.42737432  1.0
  P  P4766  1  0.58494100  0.89845742  0.42737432  1.0
  P  P4767  1  0.69605211  0.04131456  0.42737432  1.0
  P  P4768  1  0.69605211  0.18417170  0.42737432  1.0
  P  P4769  1  0.69605211  0.32702885  0.42737432  1.0
  P  P4770  1  0.69605211  0.46988599  0.42737432  1.0
  P  P4771  1  0.69605211  0.61274313  0.42737432  1.0
  P  P4772  1  0.69605211  0.75560027  0.42737432  1.0
  P  P4773  1  0.69605211  0.89845742  0.42737432  1.0
  P  P4774  1  0.80716322  0.04131456  0.42737432  1.0
  P  P4775  1  0.80716322  0.18417170  0.42737432  1.0
  P  P4776  1  0.80716322  0.32702885  0.42737432  1.0
  P  P4777  1  0.80716322  0.46988599  0.42737432  1.0
  P  P4778  1  0.80716322  0.61274313  0.42737432  1.0
  P  P4779  1  0.80716322  0.75560027  0.42737432  1.0
  P  P4780  1  0.80716322  0.89845742  0.42737432  1.0
  P  P4781  1  0.91827433  0.04131456  0.42737432  1.0
  P  P4782  1  0.91827433  0.18417170  0.42737432  1.0
  P  P4783  1  0.91827433  0.32702885  0.42737432  1.0
  P  P4784  1  0.91827433  0.46988599  0.42737432  1.0
  P  P4785  1  0.91827433  0.61274313  0.42737432  1.0
  P  P4786  1  0.91827433  0.75560027  0.42737432  1.0
  P  P4787  1  0.91827433  0.89845742  0.42737432  1.0
  P  P4788  1  0.05054946  0.05492000  0.47499337  1.0
  P  P4789  1  0.05054946  0.19777715  0.47499337  1.0
  P  P4790  1  0.05054946  0.34063429  0.47499337  1.0
  P  P4791  1  0.05054946  0.48349143  0.47499337  1.0
  P  P4792  1  0.05054946  0.62634857  0.47499337  1.0
  P  P4793  1  0.05054946  0.76920572  0.47499337  1.0
  P  P4794  1  0.05054946  0.91206286  0.47499337  1.0
  P  P4795  1  0.16166058  0.05492000  0.47499337  1.0
  P  P4796  1  0.16166058  0.19777715  0.47499337  1.0
  P  P4797  1  0.16166058  0.34063429  0.47499337  1.0
  P  P4798  1  0.16166058  0.48349143  0.47499337  1.0
  P  P4799  1  0.16166058  0.62634857  0.47499337  1.0
  P  P4800  1  0.16166058  0.76920572  0.47499337  1.0
  P  P4801  1  0.16166058  0.91206286  0.47499337  1.0
  P  P4802  1  0.27277169  0.05492000  0.47499337  1.0
  P  P4803  1  0.27277169  0.19777715  0.47499337  1.0
  P  P4804  1  0.27277169  0.34063429  0.47499337  1.0
  P  P4805  1  0.27277169  0.48349143  0.47499337  1.0
  P  P4806  1  0.27277169  0.62634857  0.47499337  1.0
  P  P4807  1  0.27277169  0.76920572  0.47499337  1.0
  P  P4808  1  0.27277169  0.91206286  0.47499337  1.0
  P  P4809  1  0.38388280  0.05492000  0.47499337  1.0
  P  P4810  1  0.38388280  0.19777715  0.47499337  1.0
  P  P4811  1  0.38388280  0.34063429  0.47499337  1.0
  P  P4812  1  0.38388280  0.48349143  0.47499337  1.0
  P  P4813  1  0.38388280  0.62634857  0.47499337  1.0
  P  P4814  1  0.38388280  0.76920572  0.47499337  1.0
  P  P4815  1  0.38388280  0.91206286  0.47499337  1.0
  P  P4816  1  0.49499391  0.05492000  0.47499337  1.0
  P  P4817  1  0.49499391  0.19777715  0.47499337  1.0
  P  P4818  1  0.49499391  0.34063429  0.47499337  1.0
  P  P4819  1  0.49499391  0.48349143  0.47499337  1.0
  P  P4820  1  0.49499391  0.62634857  0.47499337  1.0
  P  P4821  1  0.49499391  0.76920572  0.47499337  1.0
  P  P4822  1  0.49499391  0.91206286  0.47499337  1.0
  P  P4823  1  0.60610502  0.05492000  0.47499337  1.0
  P  P4824  1  0.60610502  0.19777715  0.47499337  1.0
  P  P4825  1  0.60610502  0.34063429  0.47499337  1.0
  P  P4826  1  0.60610502  0.48349143  0.47499337  1.0
  P  P4827  1  0.60610502  0.62634857  0.47499337  1.0
  P  P4828  1  0.60610502  0.76920572  0.47499337  1.0
  P  P4829  1  0.60610502  0.91206286  0.47499337  1.0
  P  P4830  1  0.71721613  0.05492000  0.47499337  1.0
  P  P4831  1  0.71721613  0.19777715  0.47499337  1.0
  P  P4832  1  0.71721613  0.34063429  0.47499337  1.0
  P  P4833  1  0.71721613  0.48349143  0.47499337  1.0
  P  P4834  1  0.71721613  0.62634857  0.47499337  1.0
  P  P4835  1  0.71721613  0.76920572  0.47499337  1.0
  P  P4836  1  0.71721613  0.91206286  0.47499337  1.0
  P  P4837  1  0.82832724  0.05492000  0.47499337  1.0
  P  P4838  1  0.82832724  0.19777715  0.47499337  1.0
  P  P4839  1  0.82832724  0.34063429  0.47499337  1.0
  P  P4840  1  0.82832724  0.48349143  0.47499337  1.0
  P  P4841  1  0.82832724  0.62634857  0.47499337  1.0
  P  P4842  1  0.82832724  0.76920572  0.47499337  1.0
  P  P4843  1  0.82832724  0.91206286  0.47499337  1.0
  P  P4844  1  0.93943835  0.05492000  0.47499337  1.0
  P  P4845  1  0.93943835  0.19777715  0.47499337  1.0
  P  P4846  1  0.93943835  0.34063429  0.47499337  1.0
  P  P4847  1  0.93943835  0.48349143  0.47499337  1.0
  P  P4848  1  0.93943835  0.62634857  0.47499337  1.0
  P  P4849  1  0.93943835  0.76920572  0.47499337  1.0
  P  P4850  1  0.93943835  0.91206286  0.47499337  1.0
  P  P4851  1  0.00822142  0.02770912  0.37975527  1.0
  P  P4852  1  0.00822142  0.17056626  0.37975527  1.0
  P  P4853  1  0.00822142  0.31342340  0.37975527  1.0
  P  P4854  1  0.00822142  0.45628055  0.37975527  1.0
  P  P4855  1  0.00822142  0.59913769  0.37975527  1.0
  P  P4856  1  0.00822142  0.74199483  0.37975527  1.0
  P  P4857  1  0.00822142  0.88485198  0.37975527  1.0
  P  P4858  1  0.11933253  0.02770912  0.37975527  1.0
  P  P4859  1  0.11933253  0.17056626  0.37975527  1.0
  P  P4860  1  0.11933253  0.31342340  0.37975527  1.0
  P  P4861  1  0.11933253  0.45628055  0.37975527  1.0
  P  P4862  1  0.11933253  0.59913769  0.37975527  1.0
  P  P4863  1  0.11933253  0.74199483  0.37975527  1.0
  P  P4864  1  0.11933253  0.88485198  0.37975527  1.0
  P  P4865  1  0.23044364  0.02770912  0.37975527  1.0
  P  P4866  1  0.23044364  0.17056626  0.37975527  1.0
  P  P4867  1  0.23044364  0.31342340  0.37975527  1.0
  P  P4868  1  0.23044364  0.45628055  0.37975527  1.0
  P  P4869  1  0.23044364  0.59913769  0.37975527  1.0
  P  P4870  1  0.23044364  0.74199483  0.37975527  1.0
  P  P4871  1  0.23044364  0.88485198  0.37975527  1.0
  P  P4872  1  0.34155475  0.02770912  0.37975527  1.0
  P  P4873  1  0.34155475  0.17056626  0.37975527  1.0
  P  P4874  1  0.34155475  0.31342340  0.37975527  1.0
  P  P4875  1  0.34155475  0.45628055  0.37975527  1.0
  P  P4876  1  0.34155475  0.59913769  0.37975527  1.0
  P  P4877  1  0.34155475  0.74199483  0.37975527  1.0
  P  P4878  1  0.34155475  0.88485198  0.37975527  1.0
  P  P4879  1  0.45266587  0.02770912  0.37975527  1.0
  P  P4880  1  0.45266587  0.17056626  0.37975527  1.0
  P  P4881  1  0.45266587  0.31342340  0.37975527  1.0
  P  P4882  1  0.45266587  0.45628055  0.37975527  1.0
  P  P4883  1  0.45266587  0.59913769  0.37975527  1.0
  P  P4884  1  0.45266587  0.74199483  0.37975527  1.0
  P  P4885  1  0.45266587  0.88485198  0.37975527  1.0
  P  P4886  1  0.56377698  0.02770912  0.37975527  1.0
  P  P4887  1  0.56377698  0.17056626  0.37975527  1.0
  P  P4888  1  0.56377698  0.31342340  0.37975527  1.0
  P  P4889  1  0.56377698  0.45628055  0.37975527  1.0
  P  P4890  1  0.56377698  0.59913769  0.37975527  1.0
  P  P4891  1  0.56377698  0.74199483  0.37975527  1.0
  P  P4892  1  0.56377698  0.88485198  0.37975527  1.0
  P  P4893  1  0.67488809  0.02770912  0.37975527  1.0
  P  P4894  1  0.67488809  0.17056626  0.37975527  1.0
  P  P4895  1  0.67488809  0.31342340  0.37975527  1.0
  P  P4896  1  0.67488809  0.45628055  0.37975527  1.0
  P  P4897  1  0.67488809  0.59913769  0.37975527  1.0
  P  P4898  1  0.67488809  0.74199483  0.37975527  1.0
  P  P4899  1  0.67488809  0.88485198  0.37975527  1.0
  P  P4900  1  0.78599920  0.02770912  0.37975527  1.0
  P  P4901  1  0.78599920  0.17056626  0.37975527  1.0
  P  P4902  1  0.78599920  0.31342340  0.37975527  1.0
  P  P4903  1  0.78599920  0.45628055  0.37975527  1.0
  P  P4904  1  0.78599920  0.59913769  0.37975527  1.0
  P  P4905  1  0.78599920  0.74199483  0.37975527  1.0
  P  P4906  1  0.78599920  0.88485198  0.37975527  1.0
  P  P4907  1  0.89711031  0.02770912  0.37975527  1.0
  P  P4908  1  0.89711031  0.17056626  0.37975527  1.0
  P  P4909  1  0.89711031  0.31342340  0.37975527  1.0
  P  P4910  1  0.89711031  0.45628055  0.37975527  1.0
  P  P4911  1  0.89711031  0.59913769  0.37975527  1.0
  P  P4912  1  0.89711031  0.74199483  0.37975527  1.0
  P  P4913  1  0.89711031  0.88485198  0.37975527  1.0
  P  P4914  1  0.00022198  0.11715441  0.44281380  1.0
  P  P4915  1  0.00022198  0.26001156  0.44281380  1.0
  P  P4916  1  0.00022198  0.40286870  0.44281380  1.0
  P  P4917  1  0.00022198  0.54572584  0.44281380  1.0
  P  P4918  1  0.00022198  0.68858298  0.44281380  1.0
  P  P4919  1  0.00022198  0.83144013  0.44281380  1.0
  P  P4920  1  0.00022198  0.97429727  0.44281380  1.0
  P  P4921  1  0.11133309  0.11715441  0.44281380  1.0
  P  P4922  1  0.11133309  0.26001156  0.44281380  1.0
  P  P4923  1  0.11133309  0.40286870  0.44281380  1.0
  P  P4924  1  0.11133309  0.54572584  0.44281380  1.0
  P  P4925  1  0.11133309  0.68858298  0.44281380  1.0
  P  P4926  1  0.11133309  0.83144013  0.44281380  1.0
  P  P4927  1  0.11133309  0.97429727  0.44281380  1.0
  P  P4928  1  0.22244420  0.11715441  0.44281380  1.0
  P  P4929  1  0.22244420  0.26001156  0.44281380  1.0
  P  P4930  1  0.22244420  0.40286870  0.44281380  1.0
  P  P4931  1  0.22244420  0.54572584  0.44281380  1.0
  P  P4932  1  0.22244420  0.68858298  0.44281380  1.0
  P  P4933  1  0.22244420  0.83144013  0.44281380  1.0
  P  P4934  1  0.22244420  0.97429727  0.44281380  1.0
  P  P4935  1  0.33355531  0.11715441  0.44281380  1.0
  P  P4936  1  0.33355531  0.26001156  0.44281380  1.0
  P  P4937  1  0.33355531  0.40286870  0.44281380  1.0
  P  P4938  1  0.33355531  0.54572584  0.44281380  1.0
  P  P4939  1  0.33355531  0.68858298  0.44281380  1.0
  P  P4940  1  0.33355531  0.83144013  0.44281380  1.0
  P  P4941  1  0.33355531  0.97429727  0.44281380  1.0
  P  P4942  1  0.44466642  0.11715441  0.44281380  1.0
  P  P4943  1  0.44466642  0.26001156  0.44281380  1.0
  P  P4944  1  0.44466642  0.40286870  0.44281380  1.0
  P  P4945  1  0.44466642  0.54572584  0.44281380  1.0
  P  P4946  1  0.44466642  0.68858298  0.44281380  1.0
  P  P4947  1  0.44466642  0.83144013  0.44281380  1.0
  P  P4948  1  0.44466642  0.97429727  0.44281380  1.0
  P  P4949  1  0.55577753  0.11715441  0.44281380  1.0
  P  P4950  1  0.55577753  0.26001156  0.44281380  1.0
  P  P4951  1  0.55577753  0.40286870  0.44281380  1.0
  P  P4952  1  0.55577753  0.54572584  0.44281380  1.0
  P  P4953  1  0.55577753  0.68858298  0.44281380  1.0
  P  P4954  1  0.55577753  0.83144013  0.44281380  1.0
  P  P4955  1  0.55577753  0.97429727  0.44281380  1.0
  P  P4956  1  0.66688864  0.11715441  0.44281380  1.0
  P  P4957  1  0.66688864  0.26001156  0.44281380  1.0
  P  P4958  1  0.66688864  0.40286870  0.44281380  1.0
  P  P4959  1  0.66688864  0.54572584  0.44281380  1.0
  P  P4960  1  0.66688864  0.68858298  0.44281380  1.0
  P  P4961  1  0.66688864  0.83144013  0.44281380  1.0
  P  P4962  1  0.66688864  0.97429727  0.44281380  1.0
  P  P4963  1  0.77799975  0.11715441  0.44281380  1.0
  P  P4964  1  0.77799975  0.26001156  0.44281380  1.0
  P  P4965  1  0.77799975  0.40286870  0.44281380  1.0
  P  P4966  1  0.77799975  0.54572584  0.44281380  1.0
  P  P4967  1  0.77799975  0.68858298  0.44281380  1.0
  P  P4968  1  0.77799975  0.83144013  0.44281380  1.0
  P  P4969  1  0.77799975  0.97429727  0.44281380  1.0
  P  P4970  1  0.88911087  0.11715441  0.44281380  1.0
  P  P4971  1  0.88911087  0.26001156  0.44281380  1.0
  P  P4972  1  0.88911087  0.40286870  0.44281380  1.0
  P  P4973  1  0.88911087  0.54572584  0.44281380  1.0
  P  P4974  1  0.88911087  0.68858298  0.44281380  1.0
  P  P4975  1  0.88911087  0.83144013  0.44281380  1.0
  P  P4976  1  0.88911087  0.97429727  0.44281380  1.0
  P  P4977  1  0.02138600  0.13075985  0.49043285  1.0
  P  P4978  1  0.02138600  0.27361700  0.49043285  1.0
  P  P4979  1  0.02138600  0.41647414  0.49043285  1.0
  P  P4980  1  0.02138600  0.55933128  0.49043285  1.0
  P  P4981  1  0.02138600  0.70218843  0.49043285  1.0
  P  P4982  1  0.02138600  0.84504557  0.49043285  1.0
  P  P4983  1  0.02138600  0.98790271  0.49043285  1.0
  P  P4984  1  0.13249711  0.13075985  0.49043285  1.0
  P  P4985  1  0.13249711  0.27361700  0.49043285  1.0
  P  P4986  1  0.13249711  0.41647414  0.49043285  1.0
  P  P4987  1  0.13249711  0.55933128  0.49043285  1.0
  P  P4988  1  0.13249711  0.70218843  0.49043285  1.0
  P  P4989  1  0.13249711  0.84504557  0.49043285  1.0
  P  P4990  1  0.13249711  0.98790271  0.49043285  1.0
  P  P4991  1  0.24360822  0.13075985  0.49043285  1.0
  P  P4992  1  0.24360822  0.27361700  0.49043285  1.0
  P  P4993  1  0.24360822  0.41647414  0.49043285  1.0
  P  P4994  1  0.24360822  0.55933128  0.49043285  1.0
  P  P4995  1  0.24360822  0.70218843  0.49043285  1.0
  P  P4996  1  0.24360822  0.84504557  0.49043285  1.0
  P  P4997  1  0.24360822  0.98790271  0.49043285  1.0
  P  P4998  1  0.35471933  0.13075985  0.49043285  1.0
  P  P4999  1  0.35471933  0.27361700  0.49043285  1.0
  P  P5000  1  0.35471933  0.41647414  0.49043285  1.0
  P  P5001  1  0.35471933  0.55933128  0.49043285  1.0
  P  P5002  1  0.35471933  0.70218843  0.49043285  1.0
  P  P5003  1  0.35471933  0.84504557  0.49043285  1.0
  P  P5004  1  0.35471933  0.98790271  0.49043285  1.0
  P  P5005  1  0.46583044  0.13075985  0.49043285  1.0
  P  P5006  1  0.46583044  0.27361700  0.49043285  1.0
  P  P5007  1  0.46583044  0.41647414  0.49043285  1.0
  P  P5008  1  0.46583044  0.55933128  0.49043285  1.0
  P  P5009  1  0.46583044  0.70218843  0.49043285  1.0
  P  P5010  1  0.46583044  0.84504557  0.49043285  1.0
  P  P5011  1  0.46583044  0.98790271  0.49043285  1.0
  P  P5012  1  0.57694155  0.13075985  0.49043285  1.0
  P  P5013  1  0.57694155  0.27361700  0.49043285  1.0
  P  P5014  1  0.57694155  0.41647414  0.49043285  1.0
  P  P5015  1  0.57694155  0.55933128  0.49043285  1.0
  P  P5016  1  0.57694155  0.70218843  0.49043285  1.0
  P  P5017  1  0.57694155  0.84504557  0.49043285  1.0
  P  P5018  1  0.57694155  0.98790271  0.49043285  1.0
  P  P5019  1  0.68805266  0.13075985  0.49043285  1.0
  P  P5020  1  0.68805266  0.27361700  0.49043285  1.0
  P  P5021  1  0.68805266  0.41647414  0.49043285  1.0
  P  P5022  1  0.68805266  0.55933128  0.49043285  1.0
  P  P5023  1  0.68805266  0.70218843  0.49043285  1.0
  P  P5024  1  0.68805266  0.84504557  0.49043285  1.0
  P  P5025  1  0.68805266  0.98790271  0.49043285  1.0
  P  P5026  1  0.79916378  0.13075985  0.49043285  1.0
  P  P5027  1  0.79916378  0.27361700  0.49043285  1.0
  P  P5028  1  0.79916378  0.41647414  0.49043285  1.0
  P  P5029  1  0.79916378  0.55933128  0.49043285  1.0
  P  P5030  1  0.79916378  0.70218843  0.49043285  1.0
  P  P5031  1  0.79916378  0.84504557  0.49043285  1.0
  P  P5032  1  0.79916378  0.98790271  0.49043285  1.0
  P  P5033  1  0.91027489  0.13075985  0.49043285  1.0
  P  P5034  1  0.91027489  0.27361700  0.49043285  1.0
  P  P5035  1  0.91027489  0.41647414  0.49043285  1.0
  P  P5036  1  0.91027489  0.55933128  0.49043285  1.0
  P  P5037  1  0.91027489  0.70218843  0.49043285  1.0
  P  P5038  1  0.91027489  0.84504557  0.49043285  1.0
  P  P5039  1  0.91027489  0.98790271  0.49043285  1.0
  P  P5040  1  0.09016907  0.10354897  0.39519475  1.0
  P  P5041  1  0.09016907  0.24640611  0.39519475  1.0
  P  P5042  1  0.09016907  0.38926326  0.39519475  1.0
  P  P5043  1  0.09016907  0.53212040  0.39519475  1.0
  P  P5044  1  0.09016907  0.67497754  0.39519475  1.0
  P  P5045  1  0.09016907  0.81783468  0.39519475  1.0
  P  P5046  1  0.09016907  0.96069183  0.39519475  1.0
  P  P5047  1  0.20128018  0.10354897  0.39519475  1.0
  P  P5048  1  0.20128018  0.24640611  0.39519475  1.0
  P  P5049  1  0.20128018  0.38926326  0.39519475  1.0
  P  P5050  1  0.20128018  0.53212040  0.39519475  1.0
  P  P5051  1  0.20128018  0.67497754  0.39519475  1.0
  P  P5052  1  0.20128018  0.81783468  0.39519475  1.0
  P  P5053  1  0.20128018  0.96069183  0.39519475  1.0
  P  P5054  1  0.31239129  0.10354897  0.39519475  1.0
  P  P5055  1  0.31239129  0.24640611  0.39519475  1.0
  P  P5056  1  0.31239129  0.38926326  0.39519475  1.0
  P  P5057  1  0.31239129  0.53212040  0.39519475  1.0
  P  P5058  1  0.31239129  0.67497754  0.39519475  1.0
  P  P5059  1  0.31239129  0.81783468  0.39519475  1.0
  P  P5060  1  0.31239129  0.96069183  0.39519475  1.0
  P  P5061  1  0.42350240  0.10354897  0.39519475  1.0
  P  P5062  1  0.42350240  0.24640611  0.39519475  1.0
  P  P5063  1  0.42350240  0.38926326  0.39519475  1.0
  P  P5064  1  0.42350240  0.53212040  0.39519475  1.0
  P  P5065  1  0.42350240  0.67497754  0.39519475  1.0
  P  P5066  1  0.42350240  0.81783468  0.39519475  1.0
  P  P5067  1  0.42350240  0.96069183  0.39519475  1.0
  P  P5068  1  0.53461351  0.10354897  0.39519475  1.0
  P  P5069  1  0.53461351  0.24640611  0.39519475  1.0
  P  P5070  1  0.53461351  0.38926326  0.39519475  1.0
  P  P5071  1  0.53461351  0.53212040  0.39519475  1.0
  P  P5072  1  0.53461351  0.67497754  0.39519475  1.0
  P  P5073  1  0.53461351  0.81783468  0.39519475  1.0
  P  P5074  1  0.53461351  0.96069183  0.39519475  1.0
  P  P5075  1  0.64572462  0.10354897  0.39519475  1.0
  P  P5076  1  0.64572462  0.24640611  0.39519475  1.0
  P  P5077  1  0.64572462  0.38926326  0.39519475  1.0
  P  P5078  1  0.64572462  0.53212040  0.39519475  1.0
  P  P5079  1  0.64572462  0.67497754  0.39519475  1.0
  P  P5080  1  0.64572462  0.81783468  0.39519475  1.0
  P  P5081  1  0.64572462  0.96069183  0.39519475  1.0
  P  P5082  1  0.75683573  0.10354897  0.39519475  1.0
  P  P5083  1  0.75683573  0.24640611  0.39519475  1.0
  P  P5084  1  0.75683573  0.38926326  0.39519475  1.0
  P  P5085  1  0.75683573  0.53212040  0.39519475  1.0
  P  P5086  1  0.75683573  0.67497754  0.39519475  1.0
  P  P5087  1  0.75683573  0.81783468  0.39519475  1.0
  P  P5088  1  0.75683573  0.96069183  0.39519475  1.0
  P  P5089  1  0.86794684  0.10354897  0.39519475  1.0
  P  P5090  1  0.86794684  0.24640611  0.39519475  1.0
  P  P5091  1  0.86794684  0.38926326  0.39519475  1.0
  P  P5092  1  0.86794684  0.53212040  0.39519475  1.0
  P  P5093  1  0.86794684  0.67497754  0.39519475  1.0
  P  P5094  1  0.86794684  0.81783468  0.39519475  1.0
  P  P5095  1  0.86794684  0.96069183  0.39519475  1.0
  P  P5096  1  0.97905796  0.10354897  0.39519475  1.0
  P  P5097  1  0.97905796  0.24640611  0.39519475  1.0
  P  P5098  1  0.97905796  0.38926326  0.39519475  1.0
  P  P5099  1  0.97905796  0.53212040  0.39519475  1.0
  P  P5100  1  0.97905796  0.67497754  0.39519475  1.0
  P  P5101  1  0.97905796  0.81783468  0.39519475  1.0
  P  P5102  1  0.97905796  0.96069183  0.39519475  1.0
  P  P5103  1  0.07914310  0.00529457  0.41432905  1.0
  P  P5104  1  0.07914310  0.14815171  0.41432905  1.0
  P  P5105  1  0.07914310  0.29100885  0.41432905  1.0
  P  P5106  1  0.07914310  0.43386600  0.41432905  1.0
  P  P5107  1  0.07914310  0.57672314  0.41432905  1.0
  P  P5108  1  0.07914310  0.71958028  0.41432905  1.0
  P  P5109  1  0.07914310  0.86243742  0.41432905  1.0
  P  P5110  1  0.19025421  0.00529457  0.41432905  1.0
  P  P5111  1  0.19025421  0.14815171  0.41432905  1.0
  P  P5112  1  0.19025421  0.29100885  0.41432905  1.0
  P  P5113  1  0.19025421  0.43386600  0.41432905  1.0
  P  P5114  1  0.19025421  0.57672314  0.41432905  1.0
  P  P5115  1  0.19025421  0.71958028  0.41432905  1.0
  P  P5116  1  0.19025421  0.86243742  0.41432905  1.0
  P  P5117  1  0.30136532  0.00529457  0.41432905  1.0
  P  P5118  1  0.30136532  0.14815171  0.41432905  1.0
  P  P5119  1  0.30136532  0.29100885  0.41432905  1.0
  P  P5120  1  0.30136532  0.43386600  0.41432905  1.0
  P  P5121  1  0.30136532  0.57672314  0.41432905  1.0
  P  P5122  1  0.30136532  0.71958028  0.41432905  1.0
  P  P5123  1  0.30136532  0.86243742  0.41432905  1.0
  P  P5124  1  0.41247644  0.00529457  0.41432905  1.0
  P  P5125  1  0.41247644  0.14815171  0.41432905  1.0
  P  P5126  1  0.41247644  0.29100885  0.41432905  1.0
  P  P5127  1  0.41247644  0.43386600  0.41432905  1.0
  P  P5128  1  0.41247644  0.57672314  0.41432905  1.0
  P  P5129  1  0.41247644  0.71958028  0.41432905  1.0
  P  P5130  1  0.41247644  0.86243742  0.41432905  1.0
  P  P5131  1  0.52358755  0.00529457  0.41432905  1.0
  P  P5132  1  0.52358755  0.14815171  0.41432905  1.0
  P  P5133  1  0.52358755  0.29100885  0.41432905  1.0
  P  P5134  1  0.52358755  0.43386600  0.41432905  1.0
  P  P5135  1  0.52358755  0.57672314  0.41432905  1.0
  P  P5136  1  0.52358755  0.71958028  0.41432905  1.0
  P  P5137  1  0.52358755  0.86243742  0.41432905  1.0
  P  P5138  1  0.63469866  0.00529457  0.41432905  1.0
  P  P5139  1  0.63469866  0.14815171  0.41432905  1.0
  P  P5140  1  0.63469866  0.29100885  0.41432905  1.0
  P  P5141  1  0.63469866  0.43386600  0.41432905  1.0
  P  P5142  1  0.63469866  0.57672314  0.41432905  1.0
  P  P5143  1  0.63469866  0.71958028  0.41432905  1.0
  P  P5144  1  0.63469866  0.86243742  0.41432905  1.0
  P  P5145  1  0.74580977  0.00529457  0.41432905  1.0
  P  P5146  1  0.74580977  0.14815171  0.41432905  1.0
  P  P5147  1  0.74580977  0.29100885  0.41432905  1.0
  P  P5148  1  0.74580977  0.43386600  0.41432905  1.0
  P  P5149  1  0.74580977  0.57672314  0.41432905  1.0
  P  P5150  1  0.74580977  0.71958028  0.41432905  1.0
  P  P5151  1  0.74580977  0.86243742  0.41432905  1.0
  P  P5152  1  0.85692088  0.00529457  0.41432905  1.0
  P  P5153  1  0.85692088  0.14815171  0.41432905  1.0
  P  P5154  1  0.85692088  0.29100885  0.41432905  1.0
  P  P5155  1  0.85692088  0.43386600  0.41432905  1.0
  P  P5156  1  0.85692088  0.57672314  0.41432905  1.0
  P  P5157  1  0.85692088  0.71958028  0.41432905  1.0
  P  P5158  1  0.85692088  0.86243742  0.41432905  1.0
  P  P5159  1  0.96803199  0.00529457  0.41432905  1.0
  P  P5160  1  0.96803199  0.14815171  0.41432905  1.0
  P  P5161  1  0.96803199  0.29100885  0.41432905  1.0
  P  P5162  1  0.96803199  0.43386600  0.41432905  1.0
  P  P5163  1  0.96803199  0.57672314  0.41432905  1.0
  P  P5164  1  0.96803199  0.71958028  0.41432905  1.0
  P  P5165  1  0.96803199  0.86243742  0.41432905  1.0
  P  P5166  1  0.10030712  0.01890001  0.46194810  1.0
  P  P5167  1  0.10030712  0.16175715  0.46194810  1.0
  P  P5168  1  0.10030712  0.30461430  0.46194810  1.0
  P  P5169  1  0.10030712  0.44747144  0.46194810  1.0
  P  P5170  1  0.10030712  0.59032858  0.46194810  1.0
  P  P5171  1  0.10030712  0.73318572  0.46194810  1.0
  P  P5172  1  0.10030712  0.87604287  0.46194810  1.0
  P  P5173  1  0.21141823  0.01890001  0.46194810  1.0
  P  P5174  1  0.21141823  0.16175715  0.46194810  1.0
  P  P5175  1  0.21141823  0.30461430  0.46194810  1.0
  P  P5176  1  0.21141823  0.44747144  0.46194810  1.0
  P  P5177  1  0.21141823  0.59032858  0.46194810  1.0
  P  P5178  1  0.21141823  0.73318572  0.46194810  1.0
  P  P5179  1  0.21141823  0.87604287  0.46194810  1.0
  P  P5180  1  0.32252935  0.01890001  0.46194810  1.0
  P  P5181  1  0.32252935  0.16175715  0.46194810  1.0
  P  P5182  1  0.32252935  0.30461430  0.46194810  1.0
  P  P5183  1  0.32252935  0.44747144  0.46194810  1.0
  P  P5184  1  0.32252935  0.59032858  0.46194810  1.0
  P  P5185  1  0.32252935  0.73318572  0.46194810  1.0
  P  P5186  1  0.32252935  0.87604287  0.46194810  1.0
  P  P5187  1  0.43364046  0.01890001  0.46194810  1.0
  P  P5188  1  0.43364046  0.16175715  0.46194810  1.0
  P  P5189  1  0.43364046  0.30461430  0.46194810  1.0
  P  P5190  1  0.43364046  0.44747144  0.46194810  1.0
  P  P5191  1  0.43364046  0.59032858  0.46194810  1.0
  P  P5192  1  0.43364046  0.73318572  0.46194810  1.0
  P  P5193  1  0.43364046  0.87604287  0.46194810  1.0
  P  P5194  1  0.54475157  0.01890001  0.46194810  1.0
  P  P5195  1  0.54475157  0.16175715  0.46194810  1.0
  P  P5196  1  0.54475157  0.30461430  0.46194810  1.0
  P  P5197  1  0.54475157  0.44747144  0.46194810  1.0
  P  P5198  1  0.54475157  0.59032858  0.46194810  1.0
  P  P5199  1  0.54475157  0.73318572  0.46194810  1.0
  P  P5200  1  0.54475157  0.87604287  0.46194810  1.0
  P  P5201  1  0.65586268  0.01890001  0.46194810  1.0
  P  P5202  1  0.65586268  0.16175715  0.46194810  1.0
  P  P5203  1  0.65586268  0.30461430  0.46194810  1.0
  P  P5204  1  0.65586268  0.44747144  0.46194810  1.0
  P  P5205  1  0.65586268  0.59032858  0.46194810  1.0
  P  P5206  1  0.65586268  0.73318572  0.46194810  1.0
  P  P5207  1  0.65586268  0.87604287  0.46194810  1.0
  P  P5208  1  0.76697379  0.01890001  0.46194810  1.0
  P  P5209  1  0.76697379  0.16175715  0.46194810  1.0
  P  P5210  1  0.76697379  0.30461430  0.46194810  1.0
  P  P5211  1  0.76697379  0.44747144  0.46194810  1.0
  P  P5212  1  0.76697379  0.59032858  0.46194810  1.0
  P  P5213  1  0.76697379  0.73318572  0.46194810  1.0
  P  P5214  1  0.76697379  0.87604287  0.46194810  1.0
  P  P5215  1  0.87808490  0.01890001  0.46194810  1.0
  P  P5216  1  0.87808490  0.16175715  0.46194810  1.0
  P  P5217  1  0.87808490  0.30461430  0.46194810  1.0
  P  P5218  1  0.87808490  0.44747144  0.46194810  1.0
  P  P5219  1  0.87808490  0.59032858  0.46194810  1.0
  P  P5220  1  0.87808490  0.73318572  0.46194810  1.0
  P  P5221  1  0.87808490  0.87604287  0.46194810  1.0
  P  P5222  1  0.98919601  0.01890001  0.46194810  1.0
  P  P5223  1  0.98919601  0.16175715  0.46194810  1.0
  P  P5224  1  0.98919601  0.30461430  0.46194810  1.0
  P  P5225  1  0.98919601  0.44747144  0.46194810  1.0
  P  P5226  1  0.98919601  0.59032858  0.46194810  1.0
  P  P5227  1  0.98919601  0.73318572  0.46194810  1.0
  P  P5228  1  0.98919601  0.87604287  0.46194810  1.0
  P  P5229  1  0.05797908  0.13454627  0.36671001  1.0
  P  P5230  1  0.05797908  0.27740341  0.36671001  1.0
  P  P5231  1  0.05797908  0.42026055  0.36671001  1.0
  P  P5232  1  0.05797908  0.56311770  0.36671001  1.0
  P  P5233  1  0.05797908  0.70597484  0.36671001  1.0
  P  P5234  1  0.05797908  0.84883198  0.36671001  1.0
  P  P5235  1  0.05797908  0.99168913  0.36671001  1.0
  P  P5236  1  0.16909019  0.13454627  0.36671001  1.0
  P  P5237  1  0.16909019  0.27740341  0.36671001  1.0
  P  P5238  1  0.16909019  0.42026055  0.36671001  1.0
  P  P5239  1  0.16909019  0.56311770  0.36671001  1.0
  P  P5240  1  0.16909019  0.70597484  0.36671001  1.0
  P  P5241  1  0.16909019  0.84883198  0.36671001  1.0
  P  P5242  1  0.16909019  0.99168913  0.36671001  1.0
  P  P5243  1  0.28020130  0.13454627  0.36671001  1.0
  P  P5244  1  0.28020130  0.27740341  0.36671001  1.0
  P  P5245  1  0.28020130  0.42026055  0.36671001  1.0
  P  P5246  1  0.28020130  0.56311770  0.36671001  1.0
  P  P5247  1  0.28020130  0.70597484  0.36671001  1.0
  P  P5248  1  0.28020130  0.84883198  0.36671001  1.0
  P  P5249  1  0.28020130  0.99168913  0.36671001  1.0
  P  P5250  1  0.39131241  0.13454627  0.36671001  1.0
  P  P5251  1  0.39131241  0.27740341  0.36671001  1.0
  P  P5252  1  0.39131241  0.42026055  0.36671001  1.0
  P  P5253  1  0.39131241  0.56311770  0.36671001  1.0
  P  P5254  1  0.39131241  0.70597484  0.36671001  1.0
  P  P5255  1  0.39131241  0.84883198  0.36671001  1.0
  P  P5256  1  0.39131241  0.99168913  0.36671001  1.0
  P  P5257  1  0.50242353  0.13454627  0.36671001  1.0
  P  P5258  1  0.50242353  0.27740341  0.36671001  1.0
  P  P5259  1  0.50242353  0.42026055  0.36671001  1.0
  P  P5260  1  0.50242353  0.56311770  0.36671001  1.0
  P  P5261  1  0.50242353  0.70597484  0.36671001  1.0
  P  P5262  1  0.50242353  0.84883198  0.36671001  1.0
  P  P5263  1  0.50242353  0.99168913  0.36671001  1.0
  P  P5264  1  0.61353464  0.13454627  0.36671001  1.0
  P  P5265  1  0.61353464  0.27740341  0.36671001  1.0
  P  P5266  1  0.61353464  0.42026055  0.36671001  1.0
  P  P5267  1  0.61353464  0.56311770  0.36671001  1.0
  P  P5268  1  0.61353464  0.70597484  0.36671001  1.0
  P  P5269  1  0.61353464  0.84883198  0.36671001  1.0
  P  P5270  1  0.61353464  0.99168913  0.36671001  1.0
  P  P5271  1  0.72464575  0.13454627  0.36671001  1.0
  P  P5272  1  0.72464575  0.27740341  0.36671001  1.0
  P  P5273  1  0.72464575  0.42026055  0.36671001  1.0
  P  P5274  1  0.72464575  0.56311770  0.36671001  1.0
  P  P5275  1  0.72464575  0.70597484  0.36671001  1.0
  P  P5276  1  0.72464575  0.84883198  0.36671001  1.0
  P  P5277  1  0.72464575  0.99168913  0.36671001  1.0
  P  P5278  1  0.83575686  0.13454627  0.36671001  1.0
  P  P5279  1  0.83575686  0.27740341  0.36671001  1.0
  P  P5280  1  0.83575686  0.42026055  0.36671001  1.0
  P  P5281  1  0.83575686  0.56311770  0.36671001  1.0
  P  P5282  1  0.83575686  0.70597484  0.36671001  1.0
  P  P5283  1  0.83575686  0.84883198  0.36671001  1.0
  P  P5284  1  0.83575686  0.99168913  0.36671001  1.0
  P  P5285  1  0.94686797  0.13454627  0.36671001  1.0
  P  P5286  1  0.94686797  0.27740341  0.36671001  1.0
  P  P5287  1  0.94686797  0.42026055  0.36671001  1.0
  P  P5288  1  0.94686797  0.56311770  0.36671001  1.0
  P  P5289  1  0.94686797  0.70597484  0.36671001  1.0
  P  P5290  1  0.94686797  0.84883198  0.36671001  1.0
  P  P5291  1  0.94686797  0.99168913  0.36671001  1.0
  P  P5292  1  0.08887165  0.07138658  0.44431565  1.0
  P  P5293  1  0.08887165  0.21424372  0.44431565  1.0
  P  P5294  1  0.08887165  0.35710086  0.44431565  1.0
  P  P5295  1  0.08887165  0.49995801  0.44431565  1.0
  P  P5296  1  0.08887165  0.64281515  0.44431565  1.0
  P  P5297  1  0.08887165  0.78567229  0.44431565  1.0
  P  P5298  1  0.08887165  0.92852944  0.44431565  1.0
  P  P5299  1  0.19998276  0.07138658  0.44431565  1.0
  P  P5300  1  0.19998276  0.21424372  0.44431565  1.0
  P  P5301  1  0.19998276  0.35710086  0.44431565  1.0
  P  P5302  1  0.19998276  0.49995801  0.44431565  1.0
  P  P5303  1  0.19998276  0.64281515  0.44431565  1.0
  P  P5304  1  0.19998276  0.78567229  0.44431565  1.0
  P  P5305  1  0.19998276  0.92852944  0.44431565  1.0
  P  P5306  1  0.31109387  0.07138658  0.44431565  1.0
  P  P5307  1  0.31109387  0.21424372  0.44431565  1.0
  P  P5308  1  0.31109387  0.35710086  0.44431565  1.0
  P  P5309  1  0.31109387  0.49995801  0.44431565  1.0
  P  P5310  1  0.31109387  0.64281515  0.44431565  1.0
  P  P5311  1  0.31109387  0.78567229  0.44431565  1.0
  P  P5312  1  0.31109387  0.92852944  0.44431565  1.0
  P  P5313  1  0.42220499  0.07138658  0.44431565  1.0
  P  P5314  1  0.42220499  0.21424372  0.44431565  1.0
  P  P5315  1  0.42220499  0.35710086  0.44431565  1.0
  P  P5316  1  0.42220499  0.49995801  0.44431565  1.0
  P  P5317  1  0.42220499  0.64281515  0.44431565  1.0
  P  P5318  1  0.42220499  0.78567229  0.44431565  1.0
  P  P5319  1  0.42220499  0.92852944  0.44431565  1.0
  P  P5320  1  0.53331610  0.07138658  0.44431565  1.0
  P  P5321  1  0.53331610  0.21424372  0.44431565  1.0
  P  P5322  1  0.53331610  0.35710086  0.44431565  1.0
  P  P5323  1  0.53331610  0.49995801  0.44431565  1.0
  P  P5324  1  0.53331610  0.64281515  0.44431565  1.0
  P  P5325  1  0.53331610  0.78567229  0.44431565  1.0
  P  P5326  1  0.53331610  0.92852944  0.44431565  1.0
  P  P5327  1  0.64442721  0.07138658  0.44431565  1.0
  P  P5328  1  0.64442721  0.21424372  0.44431565  1.0
  P  P5329  1  0.64442721  0.35710086  0.44431565  1.0
  P  P5330  1  0.64442721  0.49995801  0.44431565  1.0
  P  P5331  1  0.64442721  0.64281515  0.44431565  1.0
  P  P5332  1  0.64442721  0.78567229  0.44431565  1.0
  P  P5333  1  0.64442721  0.92852944  0.44431565  1.0
  P  P5334  1  0.75553832  0.07138658  0.44431565  1.0
  P  P5335  1  0.75553832  0.21424372  0.44431565  1.0
  P  P5336  1  0.75553832  0.35710086  0.44431565  1.0
  P  P5337  1  0.75553832  0.49995801  0.44431565  1.0
  P  P5338  1  0.75553832  0.64281515  0.44431565  1.0
  P  P5339  1  0.75553832  0.78567229  0.44431565  1.0
  P  P5340  1  0.75553832  0.92852944  0.44431565  1.0
  P  P5341  1  0.86664943  0.07138658  0.44431565  1.0
  P  P5342  1  0.86664943  0.21424372  0.44431565  1.0
  P  P5343  1  0.86664943  0.35710086  0.44431565  1.0
  P  P5344  1  0.86664943  0.49995801  0.44431565  1.0
  P  P5345  1  0.86664943  0.64281515  0.44431565  1.0
  P  P5346  1  0.86664943  0.78567229  0.44431565  1.0
  P  P5347  1  0.86664943  0.92852944  0.44431565  1.0
  P  P5348  1  0.97776054  0.07138658  0.44431565  1.0
  P  P5349  1  0.97776054  0.21424372  0.44431565  1.0
  P  P5350  1  0.97776054  0.35710086  0.44431565  1.0
  P  P5351  1  0.97776054  0.49995801  0.44431565  1.0
  P  P5352  1  0.97776054  0.64281515  0.44431565  1.0
  P  P5353  1  0.97776054  0.78567229  0.44431565  1.0
  P  P5354  1  0.97776054  0.92852944  0.44431565  1.0
  P  P5355  1  0.11003567  0.08499202  0.49193470  1.0
  P  P5356  1  0.11003567  0.22784916  0.49193470  1.0
  P  P5357  1  0.11003567  0.37070631  0.49193470  1.0
  P  P5358  1  0.11003567  0.51356345  0.49193470  1.0
  P  P5359  1  0.11003567  0.65642059  0.49193470  1.0
  P  P5360  1  0.11003567  0.79927773  0.49193470  1.0
  P  P5361  1  0.11003567  0.94213488  0.49193470  1.0
  P  P5362  1  0.22114678  0.08499202  0.49193470  1.0
  P  P5363  1  0.22114678  0.22784916  0.49193470  1.0
  P  P5364  1  0.22114678  0.37070631  0.49193470  1.0
  P  P5365  1  0.22114678  0.51356345  0.49193470  1.0
  P  P5366  1  0.22114678  0.65642059  0.49193470  1.0
  P  P5367  1  0.22114678  0.79927773  0.49193470  1.0
  P  P5368  1  0.22114678  0.94213488  0.49193470  1.0
  P  P5369  1  0.33225790  0.08499202  0.49193470  1.0
  P  P5370  1  0.33225790  0.22784916  0.49193470  1.0
  P  P5371  1  0.33225790  0.37070631  0.49193470  1.0
  P  P5372  1  0.33225790  0.51356345  0.49193470  1.0
  P  P5373  1  0.33225790  0.65642059  0.49193470  1.0
  P  P5374  1  0.33225790  0.79927773  0.49193470  1.0
  P  P5375  1  0.33225790  0.94213488  0.49193470  1.0
  P  P5376  1  0.44336901  0.08499202  0.49193470  1.0
  P  P5377  1  0.44336901  0.22784916  0.49193470  1.0
  P  P5378  1  0.44336901  0.37070631  0.49193470  1.0
  P  P5379  1  0.44336901  0.51356345  0.49193470  1.0
  P  P5380  1  0.44336901  0.65642059  0.49193470  1.0
  P  P5381  1  0.44336901  0.79927773  0.49193470  1.0
  P  P5382  1  0.44336901  0.94213488  0.49193470  1.0
  P  P5383  1  0.55448012  0.08499202  0.49193470  1.0
  P  P5384  1  0.55448012  0.22784916  0.49193470  1.0
  P  P5385  1  0.55448012  0.37070631  0.49193470  1.0
  P  P5386  1  0.55448012  0.51356345  0.49193470  1.0
  P  P5387  1  0.55448012  0.65642059  0.49193470  1.0
  P  P5388  1  0.55448012  0.79927773  0.49193470  1.0
  P  P5389  1  0.55448012  0.94213488  0.49193470  1.0
  P  P5390  1  0.66559123  0.08499202  0.49193470  1.0
  P  P5391  1  0.66559123  0.22784916  0.49193470  1.0
  P  P5392  1  0.66559123  0.37070631  0.49193470  1.0
  P  P5393  1  0.66559123  0.51356345  0.49193470  1.0
  P  P5394  1  0.66559123  0.65642059  0.49193470  1.0
  P  P5395  1  0.66559123  0.79927773  0.49193470  1.0
  P  P5396  1  0.66559123  0.94213488  0.49193470  1.0
  P  P5397  1  0.77670234  0.08499202  0.49193470  1.0
  P  P5398  1  0.77670234  0.22784916  0.49193470  1.0
  P  P5399  1  0.77670234  0.37070631  0.49193470  1.0
  P  P5400  1  0.77670234  0.51356345  0.49193470  1.0
  P  P5401  1  0.77670234  0.65642059  0.49193470  1.0
  P  P5402  1  0.77670234  0.79927773  0.49193470  1.0
  P  P5403  1  0.77670234  0.94213488  0.49193470  1.0
  P  P5404  1  0.88781345  0.08499202  0.49193470  1.0
  P  P5405  1  0.88781345  0.22784916  0.49193470  1.0
  P  P5406  1  0.88781345  0.37070631  0.49193470  1.0
  P  P5407  1  0.88781345  0.51356345  0.49193470  1.0
  P  P5408  1  0.88781345  0.65642059  0.49193470  1.0
  P  P5409  1  0.88781345  0.79927773  0.49193470  1.0
  P  P5410  1  0.88781345  0.94213488  0.49193470  1.0
  P  P5411  1  0.99892456  0.08499202  0.49193470  1.0
  P  P5412  1  0.99892456  0.22784916  0.49193470  1.0
  P  P5413  1  0.99892456  0.37070631  0.49193470  1.0
  P  P5414  1  0.99892456  0.51356345  0.49193470  1.0
  P  P5415  1  0.99892456  0.65642059  0.49193470  1.0
  P  P5416  1  0.99892456  0.79927773  0.49193470  1.0
  P  P5417  1  0.99892456  0.94213488  0.49193470  1.0
  P  P5418  1  0.06770763  0.05778114  0.39669661  1.0
  P  P5419  1  0.06770763  0.20063828  0.39669661  1.0
  P  P5420  1  0.06770763  0.34349542  0.39669661  1.0
  P  P5421  1  0.06770763  0.48635256  0.39669661  1.0
  P  P5422  1  0.06770763  0.62920971  0.39669661  1.0
  P  P5423  1  0.06770763  0.77206685  0.39669661  1.0
  P  P5424  1  0.06770763  0.91492399  0.39669661  1.0
  P  P5425  1  0.17881874  0.05778114  0.39669661  1.0
  P  P5426  1  0.17881874  0.20063828  0.39669661  1.0
  P  P5427  1  0.17881874  0.34349542  0.39669661  1.0
  P  P5428  1  0.17881874  0.48635256  0.39669661  1.0
  P  P5429  1  0.17881874  0.62920971  0.39669661  1.0
  P  P5430  1  0.17881874  0.77206685  0.39669661  1.0
  P  P5431  1  0.17881874  0.91492399  0.39669661  1.0
  P  P5432  1  0.28992985  0.05778114  0.39669661  1.0
  P  P5433  1  0.28992985  0.20063828  0.39669661  1.0
  P  P5434  1  0.28992985  0.34349542  0.39669661  1.0
  P  P5435  1  0.28992985  0.48635256  0.39669661  1.0
  P  P5436  1  0.28992985  0.62920971  0.39669661  1.0
  P  P5437  1  0.28992985  0.77206685  0.39669661  1.0
  P  P5438  1  0.28992985  0.91492399  0.39669661  1.0
  P  P5439  1  0.40104096  0.05778114  0.39669661  1.0
  P  P5440  1  0.40104096  0.20063828  0.39669661  1.0
  P  P5441  1  0.40104096  0.34349542  0.39669661  1.0
  P  P5442  1  0.40104096  0.48635256  0.39669661  1.0
  P  P5443  1  0.40104096  0.62920971  0.39669661  1.0
  P  P5444  1  0.40104096  0.77206685  0.39669661  1.0
  P  P5445  1  0.40104096  0.91492399  0.39669661  1.0
  P  P5446  1  0.51215208  0.05778114  0.39669661  1.0
  P  P5447  1  0.51215208  0.20063828  0.39669661  1.0
  P  P5448  1  0.51215208  0.34349542  0.39669661  1.0
  P  P5449  1  0.51215208  0.48635256  0.39669661  1.0
  P  P5450  1  0.51215208  0.62920971  0.39669661  1.0
  P  P5451  1  0.51215208  0.77206685  0.39669661  1.0
  P  P5452  1  0.51215208  0.91492399  0.39669661  1.0
  P  P5453  1  0.62326319  0.05778114  0.39669661  1.0
  P  P5454  1  0.62326319  0.20063828  0.39669661  1.0
  P  P5455  1  0.62326319  0.34349542  0.39669661  1.0
  P  P5456  1  0.62326319  0.48635256  0.39669661  1.0
  P  P5457  1  0.62326319  0.62920971  0.39669661  1.0
  P  P5458  1  0.62326319  0.77206685  0.39669661  1.0
  P  P5459  1  0.62326319  0.91492399  0.39669661  1.0
  P  P5460  1  0.73437430  0.05778114  0.39669661  1.0
  P  P5461  1  0.73437430  0.20063828  0.39669661  1.0
  P  P5462  1  0.73437430  0.34349542  0.39669661  1.0
  P  P5463  1  0.73437430  0.48635256  0.39669661  1.0
  P  P5464  1  0.73437430  0.62920971  0.39669661  1.0
  P  P5465  1  0.73437430  0.77206685  0.39669661  1.0
  P  P5466  1  0.73437430  0.91492399  0.39669661  1.0
  P  P5467  1  0.84548541  0.05778114  0.39669661  1.0
  P  P5468  1  0.84548541  0.20063828  0.39669661  1.0
  P  P5469  1  0.84548541  0.34349542  0.39669661  1.0
  P  P5470  1  0.84548541  0.48635256  0.39669661  1.0
  P  P5471  1  0.84548541  0.62920971  0.39669661  1.0
  P  P5472  1  0.84548541  0.77206685  0.39669661  1.0
  P  P5473  1  0.84548541  0.91492399  0.39669661  1.0
  P  P5474  1  0.95659652  0.05778114  0.39669661  1.0
  P  P5475  1  0.95659652  0.20063828  0.39669661  1.0
  P  P5476  1  0.95659652  0.34349542  0.39669661  1.0
  P  P5477  1  0.95659652  0.48635256  0.39669661  1.0
  P  P5478  1  0.95659652  0.62920971  0.39669661  1.0
  P  P5479  1  0.95659652  0.77206685  0.39669661  1.0
  P  P5480  1  0.95659652  0.91492399  0.39669661  1.0
  P  P5481  1  0.10160454  0.05106240  0.41282720  1.0
  P  P5482  1  0.10160454  0.19391954  0.41282720  1.0
  P  P5483  1  0.10160454  0.33677669  0.41282720  1.0
  P  P5484  1  0.10160454  0.47963383  0.41282720  1.0
  P  P5485  1  0.10160454  0.62249097  0.41282720  1.0
  P  P5486  1  0.10160454  0.76534812  0.41282720  1.0
  P  P5487  1  0.10160454  0.90820526  0.41282720  1.0
  P  P5488  1  0.21271565  0.05106240  0.41282720  1.0
  P  P5489  1  0.21271565  0.19391954  0.41282720  1.0
  P  P5490  1  0.21271565  0.33677669  0.41282720  1.0
  P  P5491  1  0.21271565  0.47963383  0.41282720  1.0
  P  P5492  1  0.21271565  0.62249097  0.41282720  1.0
  P  P5493  1  0.21271565  0.76534812  0.41282720  1.0
  P  P5494  1  0.21271565  0.90820526  0.41282720  1.0
  P  P5495  1  0.32382676  0.05106240  0.41282720  1.0
  P  P5496  1  0.32382676  0.19391954  0.41282720  1.0
  P  P5497  1  0.32382676  0.33677669  0.41282720  1.0
  P  P5498  1  0.32382676  0.47963383  0.41282720  1.0
  P  P5499  1  0.32382676  0.62249097  0.41282720  1.0
  P  P5500  1  0.32382676  0.76534812  0.41282720  1.0
  P  P5501  1  0.32382676  0.90820526  0.41282720  1.0
  P  P5502  1  0.43493787  0.05106240  0.41282720  1.0
  P  P5503  1  0.43493787  0.19391954  0.41282720  1.0
  P  P5504  1  0.43493787  0.33677669  0.41282720  1.0
  P  P5505  1  0.43493787  0.47963383  0.41282720  1.0
  P  P5506  1  0.43493787  0.62249097  0.41282720  1.0
  P  P5507  1  0.43493787  0.76534812  0.41282720  1.0
  P  P5508  1  0.43493787  0.90820526  0.41282720  1.0
  P  P5509  1  0.54604898  0.05106240  0.41282720  1.0
  P  P5510  1  0.54604898  0.19391954  0.41282720  1.0
  P  P5511  1  0.54604898  0.33677669  0.41282720  1.0
  P  P5512  1  0.54604898  0.47963383  0.41282720  1.0
  P  P5513  1  0.54604898  0.62249097  0.41282720  1.0
  P  P5514  1  0.54604898  0.76534812  0.41282720  1.0
  P  P5515  1  0.54604898  0.90820526  0.41282720  1.0
  P  P5516  1  0.65716009  0.05106240  0.41282720  1.0
  P  P5517  1  0.65716009  0.19391954  0.41282720  1.0
  P  P5518  1  0.65716009  0.33677669  0.41282720  1.0
  P  P5519  1  0.65716009  0.47963383  0.41282720  1.0
  P  P5520  1  0.65716009  0.62249097  0.41282720  1.0
  P  P5521  1  0.65716009  0.76534812  0.41282720  1.0
  P  P5522  1  0.65716009  0.90820526  0.41282720  1.0
  P  P5523  1  0.76827121  0.05106240  0.41282720  1.0
  P  P5524  1  0.76827121  0.19391954  0.41282720  1.0
  P  P5525  1  0.76827121  0.33677669  0.41282720  1.0
  P  P5526  1  0.76827121  0.47963383  0.41282720  1.0
  P  P5527  1  0.76827121  0.62249097  0.41282720  1.0
  P  P5528  1  0.76827121  0.76534812  0.41282720  1.0
  P  P5529  1  0.76827121  0.90820526  0.41282720  1.0
  P  P5530  1  0.87938232  0.05106240  0.41282720  1.0
  P  P5531  1  0.87938232  0.19391954  0.41282720  1.0
  P  P5532  1  0.87938232  0.33677669  0.41282720  1.0
  P  P5533  1  0.87938232  0.47963383  0.41282720  1.0
  P  P5534  1  0.87938232  0.62249097  0.41282720  1.0
  P  P5535  1  0.87938232  0.76534812  0.41282720  1.0
  P  P5536  1  0.87938232  0.90820526  0.41282720  1.0
  P  P5537  1  0.99049343  0.05106240  0.41282720  1.0
  P  P5538  1  0.99049343  0.19391954  0.41282720  1.0
  P  P5539  1  0.99049343  0.33677669  0.41282720  1.0
  P  P5540  1  0.99049343  0.47963383  0.41282720  1.0
  P  P5541  1  0.99049343  0.62249097  0.41282720  1.0
  P  P5542  1  0.99049343  0.76534812  0.41282720  1.0
  P  P5543  1  0.99049343  0.90820526  0.41282720  1.0
  P  P5544  1  0.01165745  0.06466784  0.46044625  1.0
  P  P5545  1  0.01165745  0.20752499  0.46044625  1.0
  P  P5546  1  0.01165745  0.35038213  0.46044625  1.0
  P  P5547  1  0.01165745  0.49323927  0.46044625  1.0
  P  P5548  1  0.01165745  0.63609641  0.46044625  1.0
  P  P5549  1  0.01165745  0.77895356  0.46044625  1.0
  P  P5550  1  0.01165745  0.92181070  0.46044625  1.0
  P  P5551  1  0.12276856  0.06466784  0.46044625  1.0
  P  P5552  1  0.12276856  0.20752499  0.46044625  1.0
  P  P5553  1  0.12276856  0.35038213  0.46044625  1.0
  P  P5554  1  0.12276856  0.49323927  0.46044625  1.0
  P  P5555  1  0.12276856  0.63609641  0.46044625  1.0
  P  P5556  1  0.12276856  0.77895356  0.46044625  1.0
  P  P5557  1  0.12276856  0.92181070  0.46044625  1.0
  P  P5558  1  0.23387967  0.06466784  0.46044625  1.0
  P  P5559  1  0.23387967  0.20752499  0.46044625  1.0
  P  P5560  1  0.23387967  0.35038213  0.46044625  1.0
  P  P5561  1  0.23387967  0.49323927  0.46044625  1.0
  P  P5562  1  0.23387967  0.63609641  0.46044625  1.0
  P  P5563  1  0.23387967  0.77895356  0.46044625  1.0
  P  P5564  1  0.23387967  0.92181070  0.46044625  1.0
  P  P5565  1  0.34499078  0.06466784  0.46044625  1.0
  P  P5566  1  0.34499078  0.20752499  0.46044625  1.0
  P  P5567  1  0.34499078  0.35038213  0.46044625  1.0
  P  P5568  1  0.34499078  0.49323927  0.46044625  1.0
  P  P5569  1  0.34499078  0.63609641  0.46044625  1.0
  P  P5570  1  0.34499078  0.77895356  0.46044625  1.0
  P  P5571  1  0.34499078  0.92181070  0.46044625  1.0
  P  P5572  1  0.45610189  0.06466784  0.46044625  1.0
  P  P5573  1  0.45610189  0.20752499  0.46044625  1.0
  P  P5574  1  0.45610189  0.35038213  0.46044625  1.0
  P  P5575  1  0.45610189  0.49323927  0.46044625  1.0
  P  P5576  1  0.45610189  0.63609641  0.46044625  1.0
  P  P5577  1  0.45610189  0.77895356  0.46044625  1.0
  P  P5578  1  0.45610189  0.92181070  0.46044625  1.0
  P  P5579  1  0.56721300  0.06466784  0.46044625  1.0
  P  P5580  1  0.56721300  0.20752499  0.46044625  1.0
  P  P5581  1  0.56721300  0.35038213  0.46044625  1.0
  P  P5582  1  0.56721300  0.49323927  0.46044625  1.0
  P  P5583  1  0.56721300  0.63609641  0.46044625  1.0
  P  P5584  1  0.56721300  0.77895356  0.46044625  1.0
  P  P5585  1  0.56721300  0.92181070  0.46044625  1.0
  P  P5586  1  0.67832412  0.06466784  0.46044625  1.0
  P  P5587  1  0.67832412  0.20752499  0.46044625  1.0
  P  P5588  1  0.67832412  0.35038213  0.46044625  1.0
  P  P5589  1  0.67832412  0.49323927  0.46044625  1.0
  P  P5590  1  0.67832412  0.63609641  0.46044625  1.0
  P  P5591  1  0.67832412  0.77895356  0.46044625  1.0
  P  P5592  1  0.67832412  0.92181070  0.46044625  1.0
  P  P5593  1  0.78943523  0.06466784  0.46044625  1.0
  P  P5594  1  0.78943523  0.20752499  0.46044625  1.0
  P  P5595  1  0.78943523  0.35038213  0.46044625  1.0
  P  P5596  1  0.78943523  0.49323927  0.46044625  1.0
  P  P5597  1  0.78943523  0.63609641  0.46044625  1.0
  P  P5598  1  0.78943523  0.77895356  0.46044625  1.0
  P  P5599  1  0.78943523  0.92181070  0.46044625  1.0
  P  P5600  1  0.90054634  0.06466784  0.46044625  1.0
  P  P5601  1  0.90054634  0.20752499  0.46044625  1.0
  P  P5602  1  0.90054634  0.35038213  0.46044625  1.0
  P  P5603  1  0.90054634  0.49323927  0.46044625  1.0
  P  P5604  1  0.90054634  0.63609641  0.46044625  1.0
  P  P5605  1  0.90054634  0.77895356  0.46044625  1.0
  P  P5606  1  0.90054634  0.92181070  0.46044625  1.0
  P  P5607  1  0.08044052  0.03745696  0.36520816  1.0
  P  P5608  1  0.08044052  0.18031410  0.36520816  1.0
  P  P5609  1  0.08044052  0.32317124  0.36520816  1.0
  P  P5610  1  0.08044052  0.46602839  0.36520816  1.0
  P  P5611  1  0.08044052  0.60888553  0.36520816  1.0
  P  P5612  1  0.08044052  0.75174267  0.36520816  1.0
  P  P5613  1  0.08044052  0.89459982  0.36520816  1.0
  P  P5614  1  0.19155163  0.03745696  0.36520816  1.0
  P  P5615  1  0.19155163  0.18031410  0.36520816  1.0
  P  P5616  1  0.19155163  0.32317124  0.36520816  1.0
  P  P5617  1  0.19155163  0.46602839  0.36520816  1.0
  P  P5618  1  0.19155163  0.60888553  0.36520816  1.0
  P  P5619  1  0.19155163  0.75174267  0.36520816  1.0
  P  P5620  1  0.19155163  0.89459982  0.36520816  1.0
  P  P5621  1  0.30266274  0.03745696  0.36520816  1.0
  P  P5622  1  0.30266274  0.18031410  0.36520816  1.0
  P  P5623  1  0.30266274  0.32317124  0.36520816  1.0
  P  P5624  1  0.30266274  0.46602839  0.36520816  1.0
  P  P5625  1  0.30266274  0.60888553  0.36520816  1.0
  P  P5626  1  0.30266274  0.75174267  0.36520816  1.0
  P  P5627  1  0.30266274  0.89459982  0.36520816  1.0
  P  P5628  1  0.41377385  0.03745696  0.36520816  1.0
  P  P5629  1  0.41377385  0.18031410  0.36520816  1.0
  P  P5630  1  0.41377385  0.32317124  0.36520816  1.0
  P  P5631  1  0.41377385  0.46602839  0.36520816  1.0
  P  P5632  1  0.41377385  0.60888553  0.36520816  1.0
  P  P5633  1  0.41377385  0.75174267  0.36520816  1.0
  P  P5634  1  0.41377385  0.89459982  0.36520816  1.0
  P  P5635  1  0.52488496  0.03745696  0.36520816  1.0
  P  P5636  1  0.52488496  0.18031410  0.36520816  1.0
  P  P5637  1  0.52488496  0.32317124  0.36520816  1.0
  P  P5638  1  0.52488496  0.46602839  0.36520816  1.0
  P  P5639  1  0.52488496  0.60888553  0.36520816  1.0
  P  P5640  1  0.52488496  0.75174267  0.36520816  1.0
  P  P5641  1  0.52488496  0.89459982  0.36520816  1.0
  P  P5642  1  0.63599607  0.03745696  0.36520816  1.0
  P  P5643  1  0.63599607  0.18031410  0.36520816  1.0
  P  P5644  1  0.63599607  0.32317124  0.36520816  1.0
  P  P5645  1  0.63599607  0.46602839  0.36520816  1.0
  P  P5646  1  0.63599607  0.60888553  0.36520816  1.0
  P  P5647  1  0.63599607  0.75174267  0.36520816  1.0
  P  P5648  1  0.63599607  0.89459982  0.36520816  1.0
  P  P5649  1  0.74710718  0.03745696  0.36520816  1.0
  P  P5650  1  0.74710718  0.18031410  0.36520816  1.0
  P  P5651  1  0.74710718  0.32317124  0.36520816  1.0
  P  P5652  1  0.74710718  0.46602839  0.36520816  1.0
  P  P5653  1  0.74710718  0.60888553  0.36520816  1.0
  P  P5654  1  0.74710718  0.75174267  0.36520816  1.0
  P  P5655  1  0.74710718  0.89459982  0.36520816  1.0
  P  P5656  1  0.85821830  0.03745696  0.36520816  1.0
  P  P5657  1  0.85821830  0.18031410  0.36520816  1.0
  P  P5658  1  0.85821830  0.32317124  0.36520816  1.0
  P  P5659  1  0.85821830  0.46602839  0.36520816  1.0
  P  P5660  1  0.85821830  0.60888553  0.36520816  1.0
  P  P5661  1  0.85821830  0.75174267  0.36520816  1.0
  P  P5662  1  0.85821830  0.89459982  0.36520816  1.0
  P  P5663  1  0.96932941  0.03745696  0.36520816  1.0
  P  P5664  1  0.96932941  0.18031410  0.36520816  1.0
  P  P5665  1  0.96932941  0.32317124  0.36520816  1.0
  P  P5666  1  0.96932941  0.46602839  0.36520816  1.0
  P  P5667  1  0.96932941  0.60888553  0.36520816  1.0
  P  P5668  1  0.96932941  0.75174267  0.36520816  1.0
  P  P5669  1  0.96932941  0.89459982  0.36520816  1.0
  P  P5670  1  0.03499424  0.13256648  0.44809148  1.0
  P  P5671  1  0.03499424  0.27542362  0.44809148  1.0
  P  P5672  1  0.03499424  0.41828077  0.44809148  1.0
  P  P5673  1  0.03499424  0.56113791  0.44809148  1.0
  P  P5674  1  0.03499424  0.70399505  0.44809148  1.0
  P  P5675  1  0.03499424  0.84685219  0.44809148  1.0
  P  P5676  1  0.03499424  0.98970934  0.44809148  1.0
  P  P5677  1  0.14610535  0.13256648  0.44809148  1.0
  P  P5678  1  0.14610535  0.27542362  0.44809148  1.0
  P  P5679  1  0.14610535  0.41828077  0.44809148  1.0
  P  P5680  1  0.14610535  0.56113791  0.44809148  1.0
  P  P5681  1  0.14610535  0.70399505  0.44809148  1.0
  P  P5682  1  0.14610535  0.84685219  0.44809148  1.0
  P  P5683  1  0.14610535  0.98970934  0.44809148  1.0
  P  P5684  1  0.25721646  0.13256648  0.44809148  1.0
  P  P5685  1  0.25721646  0.27542362  0.44809148  1.0
  P  P5686  1  0.25721646  0.41828077  0.44809148  1.0
  P  P5687  1  0.25721646  0.56113791  0.44809148  1.0
  P  P5688  1  0.25721646  0.70399505  0.44809148  1.0
  P  P5689  1  0.25721646  0.84685219  0.44809148  1.0
  P  P5690  1  0.25721646  0.98970934  0.44809148  1.0
  P  P5691  1  0.36832757  0.13256648  0.44809148  1.0
  P  P5692  1  0.36832757  0.27542362  0.44809148  1.0
  P  P5693  1  0.36832757  0.41828077  0.44809148  1.0
  P  P5694  1  0.36832757  0.56113791  0.44809148  1.0
  P  P5695  1  0.36832757  0.70399505  0.44809148  1.0
  P  P5696  1  0.36832757  0.84685219  0.44809148  1.0
  P  P5697  1  0.36832757  0.98970934  0.44809148  1.0
  P  P5698  1  0.47943869  0.13256648  0.44809148  1.0
  P  P5699  1  0.47943869  0.27542362  0.44809148  1.0
  P  P5700  1  0.47943869  0.41828077  0.44809148  1.0
  P  P5701  1  0.47943869  0.56113791  0.44809148  1.0
  P  P5702  1  0.47943869  0.70399505  0.44809148  1.0
  P  P5703  1  0.47943869  0.84685219  0.44809148  1.0
  P  P5704  1  0.47943869  0.98970934  0.44809148  1.0
  P  P5705  1  0.59054980  0.13256648  0.44809148  1.0
  P  P5706  1  0.59054980  0.27542362  0.44809148  1.0
  P  P5707  1  0.59054980  0.41828077  0.44809148  1.0
  P  P5708  1  0.59054980  0.56113791  0.44809148  1.0
  P  P5709  1  0.59054980  0.70399505  0.44809148  1.0
  P  P5710  1  0.59054980  0.84685219  0.44809148  1.0
  P  P5711  1  0.59054980  0.98970934  0.44809148  1.0
  P  P5712  1  0.70166091  0.13256648  0.44809148  1.0
  P  P5713  1  0.70166091  0.27542362  0.44809148  1.0
  P  P5714  1  0.70166091  0.41828077  0.44809148  1.0
  P  P5715  1  0.70166091  0.56113791  0.44809148  1.0
  P  P5716  1  0.70166091  0.70399505  0.44809148  1.0
  P  P5717  1  0.70166091  0.84685219  0.44809148  1.0
  P  P5718  1  0.70166091  0.98970934  0.44809148  1.0
  P  P5719  1  0.81277202  0.13256648  0.44809148  1.0
  P  P5720  1  0.81277202  0.27542362  0.44809148  1.0
  P  P5721  1  0.81277202  0.41828077  0.44809148  1.0
  P  P5722  1  0.81277202  0.56113791  0.44809148  1.0
  P  P5723  1  0.81277202  0.70399505  0.44809148  1.0
  P  P5724  1  0.81277202  0.84685219  0.44809148  1.0
  P  P5725  1  0.81277202  0.98970934  0.44809148  1.0
  P  P5726  1  0.92388313  0.13256648  0.44809148  1.0
  P  P5727  1  0.92388313  0.27542362  0.44809148  1.0
  P  P5728  1  0.92388313  0.41828077  0.44809148  1.0
  P  P5729  1  0.92388313  0.56113791  0.44809148  1.0
  P  P5730  1  0.92388313  0.70399505  0.44809148  1.0
  P  P5731  1  0.92388313  0.84685219  0.44809148  1.0
  P  P5732  1  0.92388313  0.98970934  0.44809148  1.0
  P  P5733  1  0.05615826  0.00331478  0.49571053  1.0
  P  P5734  1  0.05615826  0.14617192  0.49571053  1.0
  P  P5735  1  0.05615826  0.28902906  0.49571053  1.0
  P  P5736  1  0.05615826  0.43188621  0.49571053  1.0
  P  P5737  1  0.05615826  0.57474335  0.49571053  1.0
  P  P5738  1  0.05615826  0.71760049  0.49571053  1.0
  P  P5739  1  0.05615826  0.86045764  0.49571053  1.0
  P  P5740  1  0.16726937  0.00331478  0.49571053  1.0
  P  P5741  1  0.16726937  0.14617192  0.49571053  1.0
  P  P5742  1  0.16726937  0.28902906  0.49571053  1.0
  P  P5743  1  0.16726937  0.43188621  0.49571053  1.0
  P  P5744  1  0.16726937  0.57474335  0.49571053  1.0
  P  P5745  1  0.16726937  0.71760049  0.49571053  1.0
  P  P5746  1  0.16726937  0.86045764  0.49571053  1.0
  P  P5747  1  0.27838048  0.00331478  0.49571053  1.0
  P  P5748  1  0.27838048  0.14617192  0.49571053  1.0
  P  P5749  1  0.27838048  0.28902906  0.49571053  1.0
  P  P5750  1  0.27838048  0.43188621  0.49571053  1.0
  P  P5751  1  0.27838048  0.57474335  0.49571053  1.0
  P  P5752  1  0.27838048  0.71760049  0.49571053  1.0
  P  P5753  1  0.27838048  0.86045764  0.49571053  1.0
  P  P5754  1  0.38949160  0.00331478  0.49571053  1.0
  P  P5755  1  0.38949160  0.14617192  0.49571053  1.0
  P  P5756  1  0.38949160  0.28902906  0.49571053  1.0
  P  P5757  1  0.38949160  0.43188621  0.49571053  1.0
  P  P5758  1  0.38949160  0.57474335  0.49571053  1.0
  P  P5759  1  0.38949160  0.71760049  0.49571053  1.0
  P  P5760  1  0.38949160  0.86045764  0.49571053  1.0
  P  P5761  1  0.50060271  0.00331478  0.49571053  1.0
  P  P5762  1  0.50060271  0.14617192  0.49571053  1.0
  P  P5763  1  0.50060271  0.28902906  0.49571053  1.0
  P  P5764  1  0.50060271  0.43188621  0.49571053  1.0
  P  P5765  1  0.50060271  0.57474335  0.49571053  1.0
  P  P5766  1  0.50060271  0.71760049  0.49571053  1.0
  P  P5767  1  0.50060271  0.86045764  0.49571053  1.0
  P  P5768  1  0.61171382  0.00331478  0.49571053  1.0
  P  P5769  1  0.61171382  0.14617192  0.49571053  1.0
  P  P5770  1  0.61171382  0.28902906  0.49571053  1.0
  P  P5771  1  0.61171382  0.43188621  0.49571053  1.0
  P  P5772  1  0.61171382  0.57474335  0.49571053  1.0
  P  P5773  1  0.61171382  0.71760049  0.49571053  1.0
  P  P5774  1  0.61171382  0.86045764  0.49571053  1.0
  P  P5775  1  0.72282493  0.00331478  0.49571053  1.0
  P  P5776  1  0.72282493  0.14617192  0.49571053  1.0
  P  P5777  1  0.72282493  0.28902906  0.49571053  1.0
  P  P5778  1  0.72282493  0.43188621  0.49571053  1.0
  P  P5779  1  0.72282493  0.57474335  0.49571053  1.0
  P  P5780  1  0.72282493  0.71760049  0.49571053  1.0
  P  P5781  1  0.72282493  0.86045764  0.49571053  1.0
  P  P5782  1  0.83393604  0.00331478  0.49571053  1.0
  P  P5783  1  0.83393604  0.14617192  0.49571053  1.0
  P  P5784  1  0.83393604  0.28902906  0.49571053  1.0
  P  P5785  1  0.83393604  0.43188621  0.49571053  1.0
  P  P5786  1  0.83393604  0.57474335  0.49571053  1.0
  P  P5787  1  0.83393604  0.71760049  0.49571053  1.0
  P  P5788  1  0.83393604  0.86045764  0.49571053  1.0
  P  P5789  1  0.94504715  0.00331478  0.49571053  1.0
  P  P5790  1  0.94504715  0.14617192  0.49571053  1.0
  P  P5791  1  0.94504715  0.28902906  0.49571053  1.0
  P  P5792  1  0.94504715  0.43188621  0.49571053  1.0
  P  P5793  1  0.94504715  0.57474335  0.49571053  1.0
  P  P5794  1  0.94504715  0.71760049  0.49571053  1.0
  P  P5795  1  0.94504715  0.86045764  0.49571053  1.0
  P  P5796  1  0.01383022  0.11896104  0.40047243  1.0
  P  P5797  1  0.01383022  0.26181818  0.40047243  1.0
  P  P5798  1  0.01383022  0.40467532  0.40047243  1.0
  P  P5799  1  0.01383022  0.54753247  0.40047243  1.0
  P  P5800  1  0.01383022  0.69038961  0.40047243  1.0
  P  P5801  1  0.01383022  0.83324675  0.40047243  1.0
  P  P5802  1  0.01383022  0.97610389  0.40047243  1.0
  P  P5803  1  0.12494133  0.11896104  0.40047243  1.0
  P  P5804  1  0.12494133  0.26181818  0.40047243  1.0
  P  P5805  1  0.12494133  0.40467532  0.40047243  1.0
  P  P5806  1  0.12494133  0.54753247  0.40047243  1.0
  P  P5807  1  0.12494133  0.69038961  0.40047243  1.0
  P  P5808  1  0.12494133  0.83324675  0.40047243  1.0
  P  P5809  1  0.12494133  0.97610389  0.40047243  1.0
  P  P5810  1  0.23605244  0.11896104  0.40047243  1.0
  P  P5811  1  0.23605244  0.26181818  0.40047243  1.0
  P  P5812  1  0.23605244  0.40467532  0.40047243  1.0
  P  P5813  1  0.23605244  0.54753247  0.40047243  1.0
  P  P5814  1  0.23605244  0.69038961  0.40047243  1.0
  P  P5815  1  0.23605244  0.83324675  0.40047243  1.0
  P  P5816  1  0.23605244  0.97610389  0.40047243  1.0
  P  P5817  1  0.34716355  0.11896104  0.40047243  1.0
  P  P5818  1  0.34716355  0.26181818  0.40047243  1.0
  P  P5819  1  0.34716355  0.40467532  0.40047243  1.0
  P  P5820  1  0.34716355  0.54753247  0.40047243  1.0
  P  P5821  1  0.34716355  0.69038961  0.40047243  1.0
  P  P5822  1  0.34716355  0.83324675  0.40047243  1.0
  P  P5823  1  0.34716355  0.97610389  0.40047243  1.0
  P  P5824  1  0.45827466  0.11896104  0.40047243  1.0
  P  P5825  1  0.45827466  0.26181818  0.40047243  1.0
  P  P5826  1  0.45827466  0.40467532  0.40047243  1.0
  P  P5827  1  0.45827466  0.54753247  0.40047243  1.0
  P  P5828  1  0.45827466  0.69038961  0.40047243  1.0
  P  P5829  1  0.45827466  0.83324675  0.40047243  1.0
  P  P5830  1  0.45827466  0.97610389  0.40047243  1.0
  P  P5831  1  0.56938578  0.11896104  0.40047243  1.0
  P  P5832  1  0.56938578  0.26181818  0.40047243  1.0
  P  P5833  1  0.56938578  0.40467532  0.40047243  1.0
  P  P5834  1  0.56938578  0.54753247  0.40047243  1.0
  P  P5835  1  0.56938578  0.69038961  0.40047243  1.0
  P  P5836  1  0.56938578  0.83324675  0.40047243  1.0
  P  P5837  1  0.56938578  0.97610389  0.40047243  1.0
  P  P5838  1  0.68049689  0.11896104  0.40047243  1.0
  P  P5839  1  0.68049689  0.26181818  0.40047243  1.0
  P  P5840  1  0.68049689  0.40467532  0.40047243  1.0
  P  P5841  1  0.68049689  0.54753247  0.40047243  1.0
  P  P5842  1  0.68049689  0.69038961  0.40047243  1.0
  P  P5843  1  0.68049689  0.83324675  0.40047243  1.0
  P  P5844  1  0.68049689  0.97610389  0.40047243  1.0
  P  P5845  1  0.79160800  0.11896104  0.40047243  1.0
  P  P5846  1  0.79160800  0.26181818  0.40047243  1.0
  P  P5847  1  0.79160800  0.40467532  0.40047243  1.0
  P  P5848  1  0.79160800  0.54753247  0.40047243  1.0
  P  P5849  1  0.79160800  0.69038961  0.40047243  1.0
  P  P5850  1  0.79160800  0.83324675  0.40047243  1.0
  P  P5851  1  0.79160800  0.97610389  0.40047243  1.0
  P  P5852  1  0.90271911  0.11896104  0.40047243  1.0
  P  P5853  1  0.90271911  0.26181818  0.40047243  1.0
  P  P5854  1  0.90271911  0.40467532  0.40047243  1.0
  P  P5855  1  0.90271911  0.54753247  0.40047243  1.0
  P  P5856  1  0.90271911  0.69038961  0.40047243  1.0
  P  P5857  1  0.90271911  0.83324675  0.40047243  1.0
  P  P5858  1  0.90271911  0.97610389  0.40047243  1.0
  P  P5859  1  0.04437084  0.13273964  0.40905138  1.0
  P  P5860  1  0.04437084  0.27559679  0.40905138  1.0
  P  P5861  1  0.04437084  0.41845393  0.40905138  1.0
  P  P5862  1  0.04437084  0.56131107  0.40905138  1.0
  P  P5863  1  0.04437084  0.70416821  0.40905138  1.0
  P  P5864  1  0.04437084  0.84702536  0.40905138  1.0
  P  P5865  1  0.04437084  0.98988250  0.40905138  1.0
  P  P5866  1  0.15548195  0.13273964  0.40905138  1.0
  P  P5867  1  0.15548195  0.27559679  0.40905138  1.0
  P  P5868  1  0.15548195  0.41845393  0.40905138  1.0
  P  P5869  1  0.15548195  0.56131107  0.40905138  1.0
  P  P5870  1  0.15548195  0.70416821  0.40905138  1.0
  P  P5871  1  0.15548195  0.84702536  0.40905138  1.0
  P  P5872  1  0.15548195  0.98988250  0.40905138  1.0
  P  P5873  1  0.26659306  0.13273964  0.40905138  1.0
  P  P5874  1  0.26659306  0.27559679  0.40905138  1.0
  P  P5875  1  0.26659306  0.41845393  0.40905138  1.0
  P  P5876  1  0.26659306  0.56131107  0.40905138  1.0
  P  P5877  1  0.26659306  0.70416821  0.40905138  1.0
  P  P5878  1  0.26659306  0.84702536  0.40905138  1.0
  P  P5879  1  0.26659306  0.98988250  0.40905138  1.0
  P  P5880  1  0.37770417  0.13273964  0.40905138  1.0
  P  P5881  1  0.37770417  0.27559679  0.40905138  1.0
  P  P5882  1  0.37770417  0.41845393  0.40905138  1.0
  P  P5883  1  0.37770417  0.56131107  0.40905138  1.0
  P  P5884  1  0.37770417  0.70416821  0.40905138  1.0
  P  P5885  1  0.37770417  0.84702536  0.40905138  1.0
  P  P5886  1  0.37770417  0.98988250  0.40905138  1.0
  P  P5887  1  0.48881528  0.13273964  0.40905138  1.0
  P  P5888  1  0.48881528  0.27559679  0.40905138  1.0
  P  P5889  1  0.48881528  0.41845393  0.40905138  1.0
  P  P5890  1  0.48881528  0.56131107  0.40905138  1.0
  P  P5891  1  0.48881528  0.70416821  0.40905138  1.0
  P  P5892  1  0.48881528  0.84702536  0.40905138  1.0
  P  P5893  1  0.48881528  0.98988250  0.40905138  1.0
  P  P5894  1  0.59992639  0.13273964  0.40905138  1.0
  P  P5895  1  0.59992639  0.27559679  0.40905138  1.0
  P  P5896  1  0.59992639  0.41845393  0.40905138  1.0
  P  P5897  1  0.59992639  0.56131107  0.40905138  1.0
  P  P5898  1  0.59992639  0.70416821  0.40905138  1.0
  P  P5899  1  0.59992639  0.84702536  0.40905138  1.0
  P  P5900  1  0.59992639  0.98988250  0.40905138  1.0
  P  P5901  1  0.71103751  0.13273964  0.40905138  1.0
  P  P5902  1  0.71103751  0.27559679  0.40905138  1.0
  P  P5903  1  0.71103751  0.41845393  0.40905138  1.0
  P  P5904  1  0.71103751  0.56131107  0.40905138  1.0
  P  P5905  1  0.71103751  0.70416821  0.40905138  1.0
  P  P5906  1  0.71103751  0.84702536  0.40905138  1.0
  P  P5907  1  0.71103751  0.98988250  0.40905138  1.0
  P  P5908  1  0.82214862  0.13273964  0.40905138  1.0
  P  P5909  1  0.82214862  0.27559679  0.40905138  1.0
  P  P5910  1  0.82214862  0.41845393  0.40905138  1.0
  P  P5911  1  0.82214862  0.56131107  0.40905138  1.0
  P  P5912  1  0.82214862  0.70416821  0.40905138  1.0
  P  P5913  1  0.82214862  0.84702536  0.40905138  1.0
  P  P5914  1  0.82214862  0.98988250  0.40905138  1.0
  P  P5915  1  0.93325973  0.13273964  0.40905138  1.0
  P  P5916  1  0.93325973  0.27559679  0.40905138  1.0
  P  P5917  1  0.93325973  0.41845393  0.40905138  1.0
  P  P5918  1  0.93325973  0.56131107  0.40905138  1.0
  P  P5919  1  0.93325973  0.70416821  0.40905138  1.0
  P  P5920  1  0.93325973  0.84702536  0.40905138  1.0
  P  P5921  1  0.93325973  0.98988250  0.40905138  1.0
  P  P5922  1  0.06553486  0.00348794  0.45667043  1.0
  P  P5923  1  0.06553486  0.14634508  0.45667043  1.0
  P  P5924  1  0.06553486  0.28920223  0.45667043  1.0
  P  P5925  1  0.06553486  0.43205937  0.45667043  1.0
  P  P5926  1  0.06553486  0.57491651  0.45667043  1.0
  P  P5927  1  0.06553486  0.71777366  0.45667043  1.0
  P  P5928  1  0.06553486  0.86063080  0.45667043  1.0
  P  P5929  1  0.17664597  0.00348794  0.45667043  1.0
  P  P5930  1  0.17664597  0.14634508  0.45667043  1.0
  P  P5931  1  0.17664597  0.28920223  0.45667043  1.0
  P  P5932  1  0.17664597  0.43205937  0.45667043  1.0
  P  P5933  1  0.17664597  0.57491651  0.45667043  1.0
  P  P5934  1  0.17664597  0.71777366  0.45667043  1.0
  P  P5935  1  0.17664597  0.86063080  0.45667043  1.0
  P  P5936  1  0.28775708  0.00348794  0.45667043  1.0
  P  P5937  1  0.28775708  0.14634508  0.45667043  1.0
  P  P5938  1  0.28775708  0.28920223  0.45667043  1.0
  P  P5939  1  0.28775708  0.43205937  0.45667043  1.0
  P  P5940  1  0.28775708  0.57491651  0.45667043  1.0
  P  P5941  1  0.28775708  0.71777366  0.45667043  1.0
  P  P5942  1  0.28775708  0.86063080  0.45667043  1.0
  P  P5943  1  0.39886819  0.00348794  0.45667043  1.0
  P  P5944  1  0.39886819  0.14634508  0.45667043  1.0
  P  P5945  1  0.39886819  0.28920223  0.45667043  1.0
  P  P5946  1  0.39886819  0.43205937  0.45667043  1.0
  P  P5947  1  0.39886819  0.57491651  0.45667043  1.0
  P  P5948  1  0.39886819  0.71777366  0.45667043  1.0
  P  P5949  1  0.39886819  0.86063080  0.45667043  1.0
  P  P5950  1  0.50997930  0.00348794  0.45667043  1.0
  P  P5951  1  0.50997930  0.14634508  0.45667043  1.0
  P  P5952  1  0.50997930  0.28920223  0.45667043  1.0
  P  P5953  1  0.50997930  0.43205937  0.45667043  1.0
  P  P5954  1  0.50997930  0.57491651  0.45667043  1.0
  P  P5955  1  0.50997930  0.71777366  0.45667043  1.0
  P  P5956  1  0.50997930  0.86063080  0.45667043  1.0
  P  P5957  1  0.62109042  0.00348794  0.45667043  1.0
  P  P5958  1  0.62109042  0.14634508  0.45667043  1.0
  P  P5959  1  0.62109042  0.28920223  0.45667043  1.0
  P  P5960  1  0.62109042  0.43205937  0.45667043  1.0
  P  P5961  1  0.62109042  0.57491651  0.45667043  1.0
  P  P5962  1  0.62109042  0.71777366  0.45667043  1.0
  P  P5963  1  0.62109042  0.86063080  0.45667043  1.0
  P  P5964  1  0.73220153  0.00348794  0.45667043  1.0
  P  P5965  1  0.73220153  0.14634508  0.45667043  1.0
  P  P5966  1  0.73220153  0.28920223  0.45667043  1.0
  P  P5967  1  0.73220153  0.43205937  0.45667043  1.0
  P  P5968  1  0.73220153  0.57491651  0.45667043  1.0
  P  P5969  1  0.73220153  0.71777366  0.45667043  1.0
  P  P5970  1  0.73220153  0.86063080  0.45667043  1.0
  P  P5971  1  0.84331264  0.00348794  0.45667043  1.0
  P  P5972  1  0.84331264  0.14634508  0.45667043  1.0
  P  P5973  1  0.84331264  0.28920223  0.45667043  1.0
  P  P5974  1  0.84331264  0.43205937  0.45667043  1.0
  P  P5975  1  0.84331264  0.57491651  0.45667043  1.0
  P  P5976  1  0.84331264  0.71777366  0.45667043  1.0
  P  P5977  1  0.84331264  0.86063080  0.45667043  1.0
  P  P5978  1  0.95442375  0.00348794  0.45667043  1.0
  P  P5979  1  0.95442375  0.14634508  0.45667043  1.0
  P  P5980  1  0.95442375  0.28920223  0.45667043  1.0
  P  P5981  1  0.95442375  0.43205937  0.45667043  1.0
  P  P5982  1  0.95442375  0.57491651  0.45667043  1.0
  P  P5983  1  0.95442375  0.71777366  0.45667043  1.0
  P  P5984  1  0.95442375  0.86063080  0.45667043  1.0
  P  P5985  1  0.02320682  0.11913420  0.36143233  1.0
  P  P5986  1  0.02320682  0.26199134  0.36143233  1.0
  P  P5987  1  0.02320682  0.40484849  0.36143233  1.0
  P  P5988  1  0.02320682  0.54770563  0.36143233  1.0
  P  P5989  1  0.02320682  0.69056277  0.36143233  1.0
  P  P5990  1  0.02320682  0.83341991  0.36143233  1.0
  P  P5991  1  0.02320682  0.97627706  0.36143233  1.0
  P  P5992  1  0.13431793  0.11913420  0.36143233  1.0
  P  P5993  1  0.13431793  0.26199134  0.36143233  1.0
  P  P5994  1  0.13431793  0.40484849  0.36143233  1.0
  P  P5995  1  0.13431793  0.54770563  0.36143233  1.0
  P  P5996  1  0.13431793  0.69056277  0.36143233  1.0
  P  P5997  1  0.13431793  0.83341991  0.36143233  1.0
  P  P5998  1  0.13431793  0.97627706  0.36143233  1.0
  P  P5999  1  0.24542904  0.11913420  0.36143233  1.0
  P  P6000  1  0.24542904  0.26199134  0.36143233  1.0
  P  P6001  1  0.24542904  0.40484849  0.36143233  1.0
  P  P6002  1  0.24542904  0.54770563  0.36143233  1.0
  P  P6003  1  0.24542904  0.69056277  0.36143233  1.0
  P  P6004  1  0.24542904  0.83341991  0.36143233  1.0
  P  P6005  1  0.24542904  0.97627706  0.36143233  1.0
  P  P6006  1  0.35654015  0.11913420  0.36143233  1.0
  P  P6007  1  0.35654015  0.26199134  0.36143233  1.0
  P  P6008  1  0.35654015  0.40484849  0.36143233  1.0
  P  P6009  1  0.35654015  0.54770563  0.36143233  1.0
  P  P6010  1  0.35654015  0.69056277  0.36143233  1.0
  P  P6011  1  0.35654015  0.83341991  0.36143233  1.0
  P  P6012  1  0.35654015  0.97627706  0.36143233  1.0
  P  P6013  1  0.46765126  0.11913420  0.36143233  1.0
  P  P6014  1  0.46765126  0.26199134  0.36143233  1.0
  P  P6015  1  0.46765126  0.40484849  0.36143233  1.0
  P  P6016  1  0.46765126  0.54770563  0.36143233  1.0
  P  P6017  1  0.46765126  0.69056277  0.36143233  1.0
  P  P6018  1  0.46765126  0.83341991  0.36143233  1.0
  P  P6019  1  0.46765126  0.97627706  0.36143233  1.0
  P  P6020  1  0.57876237  0.11913420  0.36143233  1.0
  P  P6021  1  0.57876237  0.26199134  0.36143233  1.0
  P  P6022  1  0.57876237  0.40484849  0.36143233  1.0
  P  P6023  1  0.57876237  0.54770563  0.36143233  1.0
  P  P6024  1  0.57876237  0.69056277  0.36143233  1.0
  P  P6025  1  0.57876237  0.83341991  0.36143233  1.0
  P  P6026  1  0.57876237  0.97627706  0.36143233  1.0
  P  P6027  1  0.68987348  0.11913420  0.36143233  1.0
  P  P6028  1  0.68987348  0.26199134  0.36143233  1.0
  P  P6029  1  0.68987348  0.40484849  0.36143233  1.0
  P  P6030  1  0.68987348  0.54770563  0.36143233  1.0
  P  P6031  1  0.68987348  0.69056277  0.36143233  1.0
  P  P6032  1  0.68987348  0.83341991  0.36143233  1.0
  P  P6033  1  0.68987348  0.97627706  0.36143233  1.0
  P  P6034  1  0.80098459  0.11913420  0.36143233  1.0
  P  P6035  1  0.80098459  0.26199134  0.36143233  1.0
  P  P6036  1  0.80098459  0.40484849  0.36143233  1.0
  P  P6037  1  0.80098459  0.54770563  0.36143233  1.0
  P  P6038  1  0.80098459  0.69056277  0.36143233  1.0
  P  P6039  1  0.80098459  0.83341991  0.36143233  1.0
  P  P6040  1  0.80098459  0.97627706  0.36143233  1.0
  P  P6041  1  0.91209571  0.11913420  0.36143233  1.0
  P  P6042  1  0.91209571  0.26199134  0.36143233  1.0
  P  P6043  1  0.91209571  0.40484849  0.36143233  1.0
  P  P6044  1  0.91209571  0.54770563  0.36143233  1.0
  P  P6045  1  0.91209571  0.69056277  0.36143233  1.0
  P  P6046  1  0.91209571  0.83341991  0.36143233  1.0
  P  P6047  1  0.91209571  0.97627706  0.36143233  1.0
  P  P6048  1  0.00236059  0.12195075  0.57262568  1.0
  P  P6049  1  0.00236059  0.26480789  0.57262568  1.0
  P  P6050  1  0.00236059  0.40766503  0.57262568  1.0
  P  P6051  1  0.00236059  0.55052217  0.57262568  1.0
  P  P6052  1  0.00236059  0.69337932  0.57262568  1.0
  P  P6053  1  0.00236059  0.83623646  0.57262568  1.0
  P  P6054  1  0.00236059  0.97909360  0.57262568  1.0
  P  P6055  1  0.11347170  0.12195075  0.57262568  1.0
  P  P6056  1  0.11347170  0.26480789  0.57262568  1.0
  P  P6057  1  0.11347170  0.40766503  0.57262568  1.0
  P  P6058  1  0.11347170  0.55052217  0.57262568  1.0
  P  P6059  1  0.11347170  0.69337932  0.57262568  1.0
  P  P6060  1  0.11347170  0.83623646  0.57262568  1.0
  P  P6061  1  0.11347170  0.97909360  0.57262568  1.0
  P  P6062  1  0.22458281  0.12195075  0.57262568  1.0
  P  P6063  1  0.22458281  0.26480789  0.57262568  1.0
  P  P6064  1  0.22458281  0.40766503  0.57262568  1.0
  P  P6065  1  0.22458281  0.55052217  0.57262568  1.0
  P  P6066  1  0.22458281  0.69337932  0.57262568  1.0
  P  P6067  1  0.22458281  0.83623646  0.57262568  1.0
  P  P6068  1  0.22458281  0.97909360  0.57262568  1.0
  P  P6069  1  0.33569392  0.12195075  0.57262568  1.0
  P  P6070  1  0.33569392  0.26480789  0.57262568  1.0
  P  P6071  1  0.33569392  0.40766503  0.57262568  1.0
  P  P6072  1  0.33569392  0.55052217  0.57262568  1.0
  P  P6073  1  0.33569392  0.69337932  0.57262568  1.0
  P  P6074  1  0.33569392  0.83623646  0.57262568  1.0
  P  P6075  1  0.33569392  0.97909360  0.57262568  1.0
  P  P6076  1  0.44680503  0.12195075  0.57262568  1.0
  P  P6077  1  0.44680503  0.26480789  0.57262568  1.0
  P  P6078  1  0.44680503  0.40766503  0.57262568  1.0
  P  P6079  1  0.44680503  0.55052217  0.57262568  1.0
  P  P6080  1  0.44680503  0.69337932  0.57262568  1.0
  P  P6081  1  0.44680503  0.83623646  0.57262568  1.0
  P  P6082  1  0.44680503  0.97909360  0.57262568  1.0
  P  P6083  1  0.55791614  0.12195075  0.57262568  1.0
  P  P6084  1  0.55791614  0.26480789  0.57262568  1.0
  P  P6085  1  0.55791614  0.40766503  0.57262568  1.0
  P  P6086  1  0.55791614  0.55052217  0.57262568  1.0
  P  P6087  1  0.55791614  0.69337932  0.57262568  1.0
  P  P6088  1  0.55791614  0.83623646  0.57262568  1.0
  P  P6089  1  0.55791614  0.97909360  0.57262568  1.0
  P  P6090  1  0.66902726  0.12195075  0.57262568  1.0
  P  P6091  1  0.66902726  0.26480789  0.57262568  1.0
  P  P6092  1  0.66902726  0.40766503  0.57262568  1.0
  P  P6093  1  0.66902726  0.55052217  0.57262568  1.0
  P  P6094  1  0.66902726  0.69337932  0.57262568  1.0
  P  P6095  1  0.66902726  0.83623646  0.57262568  1.0
  P  P6096  1  0.66902726  0.97909360  0.57262568  1.0
  P  P6097  1  0.78013837  0.12195075  0.57262568  1.0
  P  P6098  1  0.78013837  0.26480789  0.57262568  1.0
  P  P6099  1  0.78013837  0.40766503  0.57262568  1.0
  P  P6100  1  0.78013837  0.55052217  0.57262568  1.0
  P  P6101  1  0.78013837  0.69337932  0.57262568  1.0
  P  P6102  1  0.78013837  0.83623646  0.57262568  1.0
  P  P6103  1  0.78013837  0.97909360  0.57262568  1.0
  P  P6104  1  0.89124948  0.12195075  0.57262568  1.0
  P  P6105  1  0.89124948  0.26480789  0.57262568  1.0
  P  P6106  1  0.89124948  0.40766503  0.57262568  1.0
  P  P6107  1  0.89124948  0.55052217  0.57262568  1.0
  P  P6108  1  0.89124948  0.69337932  0.57262568  1.0
  P  P6109  1  0.89124948  0.83623646  0.57262568  1.0
  P  P6110  1  0.89124948  0.97909360  0.57262568  1.0
  P  P6111  1  0.02352461  0.13555619  0.62024473  1.0
  P  P6112  1  0.02352461  0.27841333  0.62024473  1.0
  P  P6113  1  0.02352461  0.42127047  0.62024473  1.0
  P  P6114  1  0.02352461  0.56412762  0.62024473  1.0
  P  P6115  1  0.02352461  0.70698476  0.62024473  1.0
  P  P6116  1  0.02352461  0.84984190  0.62024473  1.0
  P  P6117  1  0.02352461  0.99269905  0.62024473  1.0
  P  P6118  1  0.13463572  0.13555619  0.62024473  1.0
  P  P6119  1  0.13463572  0.27841333  0.62024473  1.0
  P  P6120  1  0.13463572  0.42127047  0.62024473  1.0
  P  P6121  1  0.13463572  0.56412762  0.62024473  1.0
  P  P6122  1  0.13463572  0.70698476  0.62024473  1.0
  P  P6123  1  0.13463572  0.84984190  0.62024473  1.0
  P  P6124  1  0.13463572  0.99269905  0.62024473  1.0
  P  P6125  1  0.24574683  0.13555619  0.62024473  1.0
  P  P6126  1  0.24574683  0.27841333  0.62024473  1.0
  P  P6127  1  0.24574683  0.42127047  0.62024473  1.0
  P  P6128  1  0.24574683  0.56412762  0.62024473  1.0
  P  P6129  1  0.24574683  0.70698476  0.62024473  1.0
  P  P6130  1  0.24574683  0.84984190  0.62024473  1.0
  P  P6131  1  0.24574683  0.99269905  0.62024473  1.0
  P  P6132  1  0.35685794  0.13555619  0.62024473  1.0
  P  P6133  1  0.35685794  0.27841333  0.62024473  1.0
  P  P6134  1  0.35685794  0.42127047  0.62024473  1.0
  P  P6135  1  0.35685794  0.56412762  0.62024473  1.0
  P  P6136  1  0.35685794  0.70698476  0.62024473  1.0
  P  P6137  1  0.35685794  0.84984190  0.62024473  1.0
  P  P6138  1  0.35685794  0.99269905  0.62024473  1.0
  P  P6139  1  0.46796905  0.13555619  0.62024473  1.0
  P  P6140  1  0.46796905  0.27841333  0.62024473  1.0
  P  P6141  1  0.46796905  0.42127047  0.62024473  1.0
  P  P6142  1  0.46796905  0.56412762  0.62024473  1.0
  P  P6143  1  0.46796905  0.70698476  0.62024473  1.0
  P  P6144  1  0.46796905  0.84984190  0.62024473  1.0
  P  P6145  1  0.46796905  0.99269905  0.62024473  1.0
  P  P6146  1  0.57908017  0.13555619  0.62024473  1.0
  P  P6147  1  0.57908017  0.27841333  0.62024473  1.0
  P  P6148  1  0.57908017  0.42127047  0.62024473  1.0
  P  P6149  1  0.57908017  0.56412762  0.62024473  1.0
  P  P6150  1  0.57908017  0.70698476  0.62024473  1.0
  P  P6151  1  0.57908017  0.84984190  0.62024473  1.0
  P  P6152  1  0.57908017  0.99269905  0.62024473  1.0
  P  P6153  1  0.69019128  0.13555619  0.62024473  1.0
  P  P6154  1  0.69019128  0.27841333  0.62024473  1.0
  P  P6155  1  0.69019128  0.42127047  0.62024473  1.0
  P  P6156  1  0.69019128  0.56412762  0.62024473  1.0
  P  P6157  1  0.69019128  0.70698476  0.62024473  1.0
  P  P6158  1  0.69019128  0.84984190  0.62024473  1.0
  P  P6159  1  0.69019128  0.99269905  0.62024473  1.0
  P  P6160  1  0.80130239  0.13555619  0.62024473  1.0
  P  P6161  1  0.80130239  0.27841333  0.62024473  1.0
  P  P6162  1  0.80130239  0.42127047  0.62024473  1.0
  P  P6163  1  0.80130239  0.56412762  0.62024473  1.0
  P  P6164  1  0.80130239  0.70698476  0.62024473  1.0
  P  P6165  1  0.80130239  0.84984190  0.62024473  1.0
  P  P6166  1  0.80130239  0.99269905  0.62024473  1.0
  P  P6167  1  0.91241350  0.13555619  0.62024473  1.0
  P  P6168  1  0.91241350  0.27841333  0.62024473  1.0
  P  P6169  1  0.91241350  0.42127047  0.62024473  1.0
  P  P6170  1  0.91241350  0.56412762  0.62024473  1.0
  P  P6171  1  0.91241350  0.70698476  0.62024473  1.0
  P  P6172  1  0.91241350  0.84984190  0.62024473  1.0
  P  P6173  1  0.91241350  0.99269905  0.62024473  1.0
  P  P6174  1  0.09230768  0.10834530  0.52500663  1.0
  P  P6175  1  0.09230768  0.25120245  0.52500663  1.0
  P  P6176  1  0.09230768  0.39405959  0.52500663  1.0
  P  P6177  1  0.09230768  0.53691673  0.52500663  1.0
  P  P6178  1  0.09230768  0.67977388  0.52500663  1.0
  P  P6179  1  0.09230768  0.82263102  0.52500663  1.0
  P  P6180  1  0.09230768  0.96548816  0.52500663  1.0
  P  P6181  1  0.20341879  0.10834530  0.52500663  1.0
  P  P6182  1  0.20341879  0.25120245  0.52500663  1.0
  P  P6183  1  0.20341879  0.39405959  0.52500663  1.0
  P  P6184  1  0.20341879  0.53691673  0.52500663  1.0
  P  P6185  1  0.20341879  0.67977388  0.52500663  1.0
  P  P6186  1  0.20341879  0.82263102  0.52500663  1.0
  P  P6187  1  0.20341879  0.96548816  0.52500663  1.0
  P  P6188  1  0.31452990  0.10834530  0.52500663  1.0
  P  P6189  1  0.31452990  0.25120245  0.52500663  1.0
  P  P6190  1  0.31452990  0.39405959  0.52500663  1.0
  P  P6191  1  0.31452990  0.53691673  0.52500663  1.0
  P  P6192  1  0.31452990  0.67977388  0.52500663  1.0
  P  P6193  1  0.31452990  0.82263102  0.52500663  1.0
  P  P6194  1  0.31452990  0.96548816  0.52500663  1.0
  P  P6195  1  0.42564101  0.10834530  0.52500663  1.0
  P  P6196  1  0.42564101  0.25120245  0.52500663  1.0
  P  P6197  1  0.42564101  0.39405959  0.52500663  1.0
  P  P6198  1  0.42564101  0.53691673  0.52500663  1.0
  P  P6199  1  0.42564101  0.67977388  0.52500663  1.0
  P  P6200  1  0.42564101  0.82263102  0.52500663  1.0
  P  P6201  1  0.42564101  0.96548816  0.52500663  1.0
  P  P6202  1  0.53675212  0.10834530  0.52500663  1.0
  P  P6203  1  0.53675212  0.25120245  0.52500663  1.0
  P  P6204  1  0.53675212  0.39405959  0.52500663  1.0
  P  P6205  1  0.53675212  0.53691673  0.52500663  1.0
  P  P6206  1  0.53675212  0.67977388  0.52500663  1.0
  P  P6207  1  0.53675212  0.82263102  0.52500663  1.0
  P  P6208  1  0.53675212  0.96548816  0.52500663  1.0
  P  P6209  1  0.64786323  0.10834530  0.52500663  1.0
  P  P6210  1  0.64786323  0.25120245  0.52500663  1.0
  P  P6211  1  0.64786323  0.39405959  0.52500663  1.0
  P  P6212  1  0.64786323  0.53691673  0.52500663  1.0
  P  P6213  1  0.64786323  0.67977388  0.52500663  1.0
  P  P6214  1  0.64786323  0.82263102  0.52500663  1.0
  P  P6215  1  0.64786323  0.96548816  0.52500663  1.0
  P  P6216  1  0.75897435  0.10834530  0.52500663  1.0
  P  P6217  1  0.75897435  0.25120245  0.52500663  1.0
  P  P6218  1  0.75897435  0.39405959  0.52500663  1.0
  P  P6219  1  0.75897435  0.53691673  0.52500663  1.0
  P  P6220  1  0.75897435  0.67977388  0.52500663  1.0
  P  P6221  1  0.75897435  0.82263102  0.52500663  1.0
  P  P6222  1  0.75897435  0.96548816  0.52500663  1.0
  P  P6223  1  0.87008546  0.10834530  0.52500663  1.0
  P  P6224  1  0.87008546  0.25120245  0.52500663  1.0
  P  P6225  1  0.87008546  0.39405959  0.52500663  1.0
  P  P6226  1  0.87008546  0.53691673  0.52500663  1.0
  P  P6227  1  0.87008546  0.67977388  0.52500663  1.0
  P  P6228  1  0.87008546  0.82263102  0.52500663  1.0
  P  P6229  1  0.87008546  0.96548816  0.52500663  1.0
  P  P6230  1  0.98119657  0.10834530  0.52500663  1.0
  P  P6231  1  0.98119657  0.25120245  0.52500663  1.0
  P  P6232  1  0.98119657  0.39405959  0.52500663  1.0
  P  P6233  1  0.98119657  0.53691673  0.52500663  1.0
  P  P6234  1  0.98119657  0.67977388  0.52500663  1.0
  P  P6235  1  0.98119657  0.82263102  0.52500663  1.0
  P  P6236  1  0.98119657  0.96548816  0.52500663  1.0
  P  P6237  1  0.09287751  0.08213089  0.57023146  1.0
  P  P6238  1  0.09287751  0.22498803  0.57023146  1.0
  P  P6239  1  0.09287751  0.36784517  0.57023146  1.0
  P  P6240  1  0.09287751  0.51070232  0.57023146  1.0
  P  P6241  1  0.09287751  0.65355946  0.57023146  1.0
  P  P6242  1  0.09287751  0.79641660  0.57023146  1.0
  P  P6243  1  0.09287751  0.93927374  0.57023146  1.0
  P  P6244  1  0.20398862  0.08213089  0.57023146  1.0
  P  P6245  1  0.20398862  0.22498803  0.57023146  1.0
  P  P6246  1  0.20398862  0.36784517  0.57023146  1.0
  P  P6247  1  0.20398862  0.51070232  0.57023146  1.0
  P  P6248  1  0.20398862  0.65355946  0.57023146  1.0
  P  P6249  1  0.20398862  0.79641660  0.57023146  1.0
  P  P6250  1  0.20398862  0.93927374  0.57023146  1.0
  P  P6251  1  0.31509973  0.08213089  0.57023146  1.0
  P  P6252  1  0.31509973  0.22498803  0.57023146  1.0
  P  P6253  1  0.31509973  0.36784517  0.57023146  1.0
  P  P6254  1  0.31509973  0.51070232  0.57023146  1.0
  P  P6255  1  0.31509973  0.65355946  0.57023146  1.0
  P  P6256  1  0.31509973  0.79641660  0.57023146  1.0
  P  P6257  1  0.31509973  0.93927374  0.57023146  1.0
  P  P6258  1  0.42621084  0.08213089  0.57023146  1.0
  P  P6259  1  0.42621084  0.22498803  0.57023146  1.0
  P  P6260  1  0.42621084  0.36784517  0.57023146  1.0
  P  P6261  1  0.42621084  0.51070232  0.57023146  1.0
  P  P6262  1  0.42621084  0.65355946  0.57023146  1.0
  P  P6263  1  0.42621084  0.79641660  0.57023146  1.0
  P  P6264  1  0.42621084  0.93927374  0.57023146  1.0
  P  P6265  1  0.53732195  0.08213089  0.57023146  1.0
  P  P6266  1  0.53732195  0.22498803  0.57023146  1.0
  P  P6267  1  0.53732195  0.36784517  0.57023146  1.0
  P  P6268  1  0.53732195  0.51070232  0.57023146  1.0
  P  P6269  1  0.53732195  0.65355946  0.57023146  1.0
  P  P6270  1  0.53732195  0.79641660  0.57023146  1.0
  P  P6271  1  0.53732195  0.93927374  0.57023146  1.0
  P  P6272  1  0.64843306  0.08213089  0.57023146  1.0
  P  P6273  1  0.64843306  0.22498803  0.57023146  1.0
  P  P6274  1  0.64843306  0.36784517  0.57023146  1.0
  P  P6275  1  0.64843306  0.51070232  0.57023146  1.0
  P  P6276  1  0.64843306  0.65355946  0.57023146  1.0
  P  P6277  1  0.64843306  0.79641660  0.57023146  1.0
  P  P6278  1  0.64843306  0.93927374  0.57023146  1.0
  P  P6279  1  0.75954417  0.08213089  0.57023146  1.0
  P  P6280  1  0.75954417  0.22498803  0.57023146  1.0
  P  P6281  1  0.75954417  0.36784517  0.57023146  1.0
  P  P6282  1  0.75954417  0.51070232  0.57023146  1.0
  P  P6283  1  0.75954417  0.65355946  0.57023146  1.0
  P  P6284  1  0.75954417  0.79641660  0.57023146  1.0
  P  P6285  1  0.75954417  0.93927374  0.57023146  1.0
  P  P6286  1  0.87065528  0.08213089  0.57023146  1.0
  P  P6287  1  0.87065528  0.22498803  0.57023146  1.0
  P  P6288  1  0.87065528  0.36784517  0.57023146  1.0
  P  P6289  1  0.87065528  0.51070232  0.57023146  1.0
  P  P6290  1  0.87065528  0.65355946  0.57023146  1.0
  P  P6291  1  0.87065528  0.79641660  0.57023146  1.0
  P  P6292  1  0.87065528  0.93927374  0.57023146  1.0
  P  P6293  1  0.98176640  0.08213089  0.57023146  1.0
  P  P6294  1  0.98176640  0.22498803  0.57023146  1.0
  P  P6295  1  0.98176640  0.36784517  0.57023146  1.0
  P  P6296  1  0.98176640  0.51070232  0.57023146  1.0
  P  P6297  1  0.98176640  0.65355946  0.57023146  1.0
  P  P6298  1  0.98176640  0.79641660  0.57023146  1.0
  P  P6299  1  0.98176640  0.93927374  0.57023146  1.0
  P  P6300  1  0.00293042  0.09573633  0.61785051  1.0
  P  P6301  1  0.00293042  0.23859347  0.61785051  1.0
  P  P6302  1  0.00293042  0.38145061  0.61785051  1.0
  P  P6303  1  0.00293042  0.52430776  0.61785051  1.0
  P  P6304  1  0.00293042  0.66716490  0.61785051  1.0
  P  P6305  1  0.00293042  0.81002204  0.61785051  1.0
  P  P6306  1  0.00293042  0.95287919  0.61785051  1.0
  P  P6307  1  0.11404153  0.09573633  0.61785051  1.0
  P  P6308  1  0.11404153  0.23859347  0.61785051  1.0
  P  P6309  1  0.11404153  0.38145061  0.61785051  1.0
  P  P6310  1  0.11404153  0.52430776  0.61785051  1.0
  P  P6311  1  0.11404153  0.66716490  0.61785051  1.0
  P  P6312  1  0.11404153  0.81002204  0.61785051  1.0
  P  P6313  1  0.11404153  0.95287919  0.61785051  1.0
  P  P6314  1  0.22515264  0.09573633  0.61785051  1.0
  P  P6315  1  0.22515264  0.23859347  0.61785051  1.0
  P  P6316  1  0.22515264  0.38145061  0.61785051  1.0
  P  P6317  1  0.22515264  0.52430776  0.61785051  1.0
  P  P6318  1  0.22515264  0.66716490  0.61785051  1.0
  P  P6319  1  0.22515264  0.81002204  0.61785051  1.0
  P  P6320  1  0.22515264  0.95287919  0.61785051  1.0
  P  P6321  1  0.33626375  0.09573633  0.61785051  1.0
  P  P6322  1  0.33626375  0.23859347  0.61785051  1.0
  P  P6323  1  0.33626375  0.38145061  0.61785051  1.0
  P  P6324  1  0.33626375  0.52430776  0.61785051  1.0
  P  P6325  1  0.33626375  0.66716490  0.61785051  1.0
  P  P6326  1  0.33626375  0.81002204  0.61785051  1.0
  P  P6327  1  0.33626375  0.95287919  0.61785051  1.0
  P  P6328  1  0.44737486  0.09573633  0.61785051  1.0
  P  P6329  1  0.44737486  0.23859347  0.61785051  1.0
  P  P6330  1  0.44737486  0.38145061  0.61785051  1.0
  P  P6331  1  0.44737486  0.52430776  0.61785051  1.0
  P  P6332  1  0.44737486  0.66716490  0.61785051  1.0
  P  P6333  1  0.44737486  0.81002204  0.61785051  1.0
  P  P6334  1  0.44737486  0.95287919  0.61785051  1.0
  P  P6335  1  0.55848597  0.09573633  0.61785051  1.0
  P  P6336  1  0.55848597  0.23859347  0.61785051  1.0
  P  P6337  1  0.55848597  0.38145061  0.61785051  1.0
  P  P6338  1  0.55848597  0.52430776  0.61785051  1.0
  P  P6339  1  0.55848597  0.66716490  0.61785051  1.0
  P  P6340  1  0.55848597  0.81002204  0.61785051  1.0
  P  P6341  1  0.55848597  0.95287919  0.61785051  1.0
  P  P6342  1  0.66959708  0.09573633  0.61785051  1.0
  P  P6343  1  0.66959708  0.23859347  0.61785051  1.0
  P  P6344  1  0.66959708  0.38145061  0.61785051  1.0
  P  P6345  1  0.66959708  0.52430776  0.61785051  1.0
  P  P6346  1  0.66959708  0.66716490  0.61785051  1.0
  P  P6347  1  0.66959708  0.81002204  0.61785051  1.0
  P  P6348  1  0.66959708  0.95287919  0.61785051  1.0
  P  P6349  1  0.78070819  0.09573633  0.61785051  1.0
  P  P6350  1  0.78070819  0.23859347  0.61785051  1.0
  P  P6351  1  0.78070819  0.38145061  0.61785051  1.0
  P  P6352  1  0.78070819  0.52430776  0.61785051  1.0
  P  P6353  1  0.78070819  0.66716490  0.61785051  1.0
  P  P6354  1  0.78070819  0.81002204  0.61785051  1.0
  P  P6355  1  0.78070819  0.95287919  0.61785051  1.0
  P  P6356  1  0.89181931  0.09573633  0.61785051  1.0
  P  P6357  1  0.89181931  0.23859347  0.61785051  1.0
  P  P6358  1  0.89181931  0.38145061  0.61785051  1.0
  P  P6359  1  0.89181931  0.52430776  0.61785051  1.0
  P  P6360  1  0.89181931  0.66716490  0.61785051  1.0
  P  P6361  1  0.89181931  0.81002204  0.61785051  1.0
  P  P6362  1  0.89181931  0.95287919  0.61785051  1.0
  P  P6363  1  0.07171349  0.06852544  0.52261242  1.0
  P  P6364  1  0.07171349  0.21138259  0.52261242  1.0
  P  P6365  1  0.07171349  0.35423973  0.52261242  1.0
  P  P6366  1  0.07171349  0.49709687  0.52261242  1.0
  P  P6367  1  0.07171349  0.63995402  0.52261242  1.0
  P  P6368  1  0.07171349  0.78281116  0.52261242  1.0
  P  P6369  1  0.07171349  0.92566830  0.52261242  1.0
  P  P6370  1  0.18282460  0.06852544  0.52261242  1.0
  P  P6371  1  0.18282460  0.21138259  0.52261242  1.0
  P  P6372  1  0.18282460  0.35423973  0.52261242  1.0
  P  P6373  1  0.18282460  0.49709687  0.52261242  1.0
  P  P6374  1  0.18282460  0.63995402  0.52261242  1.0
  P  P6375  1  0.18282460  0.78281116  0.52261242  1.0
  P  P6376  1  0.18282460  0.92566830  0.52261242  1.0
  P  P6377  1  0.29393571  0.06852544  0.52261242  1.0
  P  P6378  1  0.29393571  0.21138259  0.52261242  1.0
  P  P6379  1  0.29393571  0.35423973  0.52261242  1.0
  P  P6380  1  0.29393571  0.49709687  0.52261242  1.0
  P  P6381  1  0.29393571  0.63995402  0.52261242  1.0
  P  P6382  1  0.29393571  0.78281116  0.52261242  1.0
  P  P6383  1  0.29393571  0.92566830  0.52261242  1.0
  P  P6384  1  0.40504682  0.06852544  0.52261242  1.0
  P  P6385  1  0.40504682  0.21138259  0.52261242  1.0
  P  P6386  1  0.40504682  0.35423973  0.52261242  1.0
  P  P6387  1  0.40504682  0.49709687  0.52261242  1.0
  P  P6388  1  0.40504682  0.63995402  0.52261242  1.0
  P  P6389  1  0.40504682  0.78281116  0.52261242  1.0
  P  P6390  1  0.40504682  0.92566830  0.52261242  1.0
  P  P6391  1  0.51615793  0.06852544  0.52261242  1.0
  P  P6392  1  0.51615793  0.21138259  0.52261242  1.0
  P  P6393  1  0.51615793  0.35423973  0.52261242  1.0
  P  P6394  1  0.51615793  0.49709687  0.52261242  1.0
  P  P6395  1  0.51615793  0.63995402  0.52261242  1.0
  P  P6396  1  0.51615793  0.78281116  0.52261242  1.0
  P  P6397  1  0.51615793  0.92566830  0.52261242  1.0
  P  P6398  1  0.62726904  0.06852544  0.52261242  1.0
  P  P6399  1  0.62726904  0.21138259  0.52261242  1.0
  P  P6400  1  0.62726904  0.35423973  0.52261242  1.0
  P  P6401  1  0.62726904  0.49709687  0.52261242  1.0
  P  P6402  1  0.62726904  0.63995402  0.52261242  1.0
  P  P6403  1  0.62726904  0.78281116  0.52261242  1.0
  P  P6404  1  0.62726904  0.92566830  0.52261242  1.0
  P  P6405  1  0.73838015  0.06852544  0.52261242  1.0
  P  P6406  1  0.73838015  0.21138259  0.52261242  1.0
  P  P6407  1  0.73838015  0.35423973  0.52261242  1.0
  P  P6408  1  0.73838015  0.49709687  0.52261242  1.0
  P  P6409  1  0.73838015  0.63995402  0.52261242  1.0
  P  P6410  1  0.73838015  0.78281116  0.52261242  1.0
  P  P6411  1  0.73838015  0.92566830  0.52261242  1.0
  P  P6412  1  0.84949126  0.06852544  0.52261242  1.0
  P  P6413  1  0.84949126  0.21138259  0.52261242  1.0
  P  P6414  1  0.84949126  0.35423973  0.52261242  1.0
  P  P6415  1  0.84949126  0.49709687  0.52261242  1.0
  P  P6416  1  0.84949126  0.63995402  0.52261242  1.0
  P  P6417  1  0.84949126  0.78281116  0.52261242  1.0
  P  P6418  1  0.84949126  0.92566830  0.52261242  1.0
  P  P6419  1  0.96060237  0.06852544  0.52261242  1.0
  P  P6420  1  0.96060237  0.21138259  0.52261242  1.0
  P  P6421  1  0.96060237  0.35423973  0.52261242  1.0
  P  P6422  1  0.96060237  0.49709687  0.52261242  1.0
  P  P6423  1  0.96060237  0.63995402  0.52261242  1.0
  P  P6424  1  0.96060237  0.78281116  0.52261242  1.0
  P  P6425  1  0.96060237  0.92566830  0.52261242  1.0
  P  P6426  1  0.06371404  0.01511360  0.58567095  1.0
  P  P6427  1  0.06371404  0.15797074  0.58567095  1.0
  P  P6428  1  0.06371404  0.30082788  0.58567095  1.0
  P  P6429  1  0.06371404  0.44368502  0.58567095  1.0
  P  P6430  1  0.06371404  0.58654217  0.58567095  1.0
  P  P6431  1  0.06371404  0.72939931  0.58567095  1.0
  P  P6432  1  0.06371404  0.87225645  0.58567095  1.0
  P  P6433  1  0.17482515  0.01511360  0.58567095  1.0
  P  P6434  1  0.17482515  0.15797074  0.58567095  1.0
  P  P6435  1  0.17482515  0.30082788  0.58567095  1.0
  P  P6436  1  0.17482515  0.44368502  0.58567095  1.0
  P  P6437  1  0.17482515  0.58654217  0.58567095  1.0
  P  P6438  1  0.17482515  0.72939931  0.58567095  1.0
  P  P6439  1  0.17482515  0.87225645  0.58567095  1.0
  P  P6440  1  0.28593626  0.01511360  0.58567095  1.0
  P  P6441  1  0.28593626  0.15797074  0.58567095  1.0
  P  P6442  1  0.28593626  0.30082788  0.58567095  1.0
  P  P6443  1  0.28593626  0.44368502  0.58567095  1.0
  P  P6444  1  0.28593626  0.58654217  0.58567095  1.0
  P  P6445  1  0.28593626  0.72939931  0.58567095  1.0
  P  P6446  1  0.28593626  0.87225645  0.58567095  1.0
  P  P6447  1  0.39704737  0.01511360  0.58567095  1.0
  P  P6448  1  0.39704737  0.15797074  0.58567095  1.0
  P  P6449  1  0.39704737  0.30082788  0.58567095  1.0
  P  P6450  1  0.39704737  0.44368502  0.58567095  1.0
  P  P6451  1  0.39704737  0.58654217  0.58567095  1.0
  P  P6452  1  0.39704737  0.72939931  0.58567095  1.0
  P  P6453  1  0.39704737  0.87225645  0.58567095  1.0
  P  P6454  1  0.50815848  0.01511360  0.58567095  1.0
  P  P6455  1  0.50815848  0.15797074  0.58567095  1.0
  P  P6456  1  0.50815848  0.30082788  0.58567095  1.0
  P  P6457  1  0.50815848  0.44368502  0.58567095  1.0
  P  P6458  1  0.50815848  0.58654217  0.58567095  1.0
  P  P6459  1  0.50815848  0.72939931  0.58567095  1.0
  P  P6460  1  0.50815848  0.87225645  0.58567095  1.0
  P  P6461  1  0.61926960  0.01511360  0.58567095  1.0
  P  P6462  1  0.61926960  0.15797074  0.58567095  1.0
  P  P6463  1  0.61926960  0.30082788  0.58567095  1.0
  P  P6464  1  0.61926960  0.44368502  0.58567095  1.0
  P  P6465  1  0.61926960  0.58654217  0.58567095  1.0
  P  P6466  1  0.61926960  0.72939931  0.58567095  1.0
  P  P6467  1  0.61926960  0.87225645  0.58567095  1.0
  P  P6468  1  0.73038071  0.01511360  0.58567095  1.0
  P  P6469  1  0.73038071  0.15797074  0.58567095  1.0
  P  P6470  1  0.73038071  0.30082788  0.58567095  1.0
  P  P6471  1  0.73038071  0.44368502  0.58567095  1.0
  P  P6472  1  0.73038071  0.58654217  0.58567095  1.0
  P  P6473  1  0.73038071  0.72939931  0.58567095  1.0
  P  P6474  1  0.73038071  0.87225645  0.58567095  1.0
  P  P6475  1  0.84149182  0.01511360  0.58567095  1.0
  P  P6476  1  0.84149182  0.15797074  0.58567095  1.0
  P  P6477  1  0.84149182  0.30082788  0.58567095  1.0
  P  P6478  1  0.84149182  0.44368502  0.58567095  1.0
  P  P6479  1  0.84149182  0.58654217  0.58567095  1.0
  P  P6480  1  0.84149182  0.72939931  0.58567095  1.0
  P  P6481  1  0.84149182  0.87225645  0.58567095  1.0
  P  P6482  1  0.95260293  0.01511360  0.58567095  1.0
  P  P6483  1  0.95260293  0.15797074  0.58567095  1.0
  P  P6484  1  0.95260293  0.30082788  0.58567095  1.0
  P  P6485  1  0.95260293  0.44368502  0.58567095  1.0
  P  P6486  1  0.95260293  0.58654217  0.58567095  1.0
  P  P6487  1  0.95260293  0.72939931  0.58567095  1.0
  P  P6488  1  0.95260293  0.87225645  0.58567095  1.0
  P  P6489  1  0.08487806  0.02871904  0.63328999  1.0
  P  P6490  1  0.08487806  0.17157618  0.63328999  1.0
  P  P6491  1  0.08487806  0.31443332  0.63328999  1.0
  P  P6492  1  0.08487806  0.45729047  0.63328999  1.0
  P  P6493  1  0.08487806  0.60014761  0.63328999  1.0
  P  P6494  1  0.08487806  0.74300475  0.63328999  1.0
  P  P6495  1  0.08487806  0.88586190  0.63328999  1.0
  P  P6496  1  0.19598917  0.02871904  0.63328999  1.0
  P  P6497  1  0.19598917  0.17157618  0.63328999  1.0
  P  P6498  1  0.19598917  0.31443332  0.63328999  1.0
  P  P6499  1  0.19598917  0.45729047  0.63328999  1.0
  P  P6500  1  0.19598917  0.60014761  0.63328999  1.0
  P  P6501  1  0.19598917  0.74300475  0.63328999  1.0
  P  P6502  1  0.19598917  0.88586190  0.63328999  1.0
  P  P6503  1  0.30710028  0.02871904  0.63328999  1.0
  P  P6504  1  0.30710028  0.17157618  0.63328999  1.0
  P  P6505  1  0.30710028  0.31443332  0.63328999  1.0
  P  P6506  1  0.30710028  0.45729047  0.63328999  1.0
  P  P6507  1  0.30710028  0.60014761  0.63328999  1.0
  P  P6508  1  0.30710028  0.74300475  0.63328999  1.0
  P  P6509  1  0.30710028  0.88586190  0.63328999  1.0
  P  P6510  1  0.41821139  0.02871904  0.63328999  1.0
  P  P6511  1  0.41821139  0.17157618  0.63328999  1.0
  P  P6512  1  0.41821139  0.31443332  0.63328999  1.0
  P  P6513  1  0.41821139  0.45729047  0.63328999  1.0
  P  P6514  1  0.41821139  0.60014761  0.63328999  1.0
  P  P6515  1  0.41821139  0.74300475  0.63328999  1.0
  P  P6516  1  0.41821139  0.88586190  0.63328999  1.0
  P  P6517  1  0.52932251  0.02871904  0.63328999  1.0
  P  P6518  1  0.52932251  0.17157618  0.63328999  1.0
  P  P6519  1  0.52932251  0.31443332  0.63328999  1.0
  P  P6520  1  0.52932251  0.45729047  0.63328999  1.0
  P  P6521  1  0.52932251  0.60014761  0.63328999  1.0
  P  P6522  1  0.52932251  0.74300475  0.63328999  1.0
  P  P6523  1  0.52932251  0.88586190  0.63328999  1.0
  P  P6524  1  0.64043362  0.02871904  0.63328999  1.0
  P  P6525  1  0.64043362  0.17157618  0.63328999  1.0
  P  P6526  1  0.64043362  0.31443332  0.63328999  1.0
  P  P6527  1  0.64043362  0.45729047  0.63328999  1.0
  P  P6528  1  0.64043362  0.60014761  0.63328999  1.0
  P  P6529  1  0.64043362  0.74300475  0.63328999  1.0
  P  P6530  1  0.64043362  0.88586190  0.63328999  1.0
  P  P6531  1  0.75154473  0.02871904  0.63328999  1.0
  P  P6532  1  0.75154473  0.17157618  0.63328999  1.0
  P  P6533  1  0.75154473  0.31443332  0.63328999  1.0
  P  P6534  1  0.75154473  0.45729047  0.63328999  1.0
  P  P6535  1  0.75154473  0.60014761  0.63328999  1.0
  P  P6536  1  0.75154473  0.74300475  0.63328999  1.0
  P  P6537  1  0.75154473  0.88586190  0.63328999  1.0
  P  P6538  1  0.86265584  0.02871904  0.63328999  1.0
  P  P6539  1  0.86265584  0.17157618  0.63328999  1.0
  P  P6540  1  0.86265584  0.31443332  0.63328999  1.0
  P  P6541  1  0.86265584  0.45729047  0.63328999  1.0
  P  P6542  1  0.86265584  0.60014761  0.63328999  1.0
  P  P6543  1  0.86265584  0.74300475  0.63328999  1.0
  P  P6544  1  0.86265584  0.88586190  0.63328999  1.0
  P  P6545  1  0.97376695  0.02871904  0.63328999  1.0
  P  P6546  1  0.97376695  0.17157618  0.63328999  1.0
  P  P6547  1  0.97376695  0.31443332  0.63328999  1.0
  P  P6548  1  0.97376695  0.45729047  0.63328999  1.0
  P  P6549  1  0.97376695  0.60014761  0.63328999  1.0
  P  P6550  1  0.97376695  0.74300475  0.63328999  1.0
  P  P6551  1  0.97376695  0.88586190  0.63328999  1.0
  P  P6552  1  0.04255002  0.00150815  0.53805190  1.0
  P  P6553  1  0.04255002  0.14436530  0.53805190  1.0
  P  P6554  1  0.04255002  0.28722244  0.53805190  1.0
  P  P6555  1  0.04255002  0.43007958  0.53805190  1.0
  P  P6556  1  0.04255002  0.57293673  0.53805190  1.0
  P  P6557  1  0.04255002  0.71579387  0.53805190  1.0
  P  P6558  1  0.04255002  0.85865101  0.53805190  1.0
  P  P6559  1  0.15366113  0.00150815  0.53805190  1.0
  P  P6560  1  0.15366113  0.14436530  0.53805190  1.0
  P  P6561  1  0.15366113  0.28722244  0.53805190  1.0
  P  P6562  1  0.15366113  0.43007958  0.53805190  1.0
  P  P6563  1  0.15366113  0.57293673  0.53805190  1.0
  P  P6564  1  0.15366113  0.71579387  0.53805190  1.0
  P  P6565  1  0.15366113  0.85865101  0.53805190  1.0
  P  P6566  1  0.26477224  0.00150815  0.53805190  1.0
  P  P6567  1  0.26477224  0.14436530  0.53805190  1.0
  P  P6568  1  0.26477224  0.28722244  0.53805190  1.0
  P  P6569  1  0.26477224  0.43007958  0.53805190  1.0
  P  P6570  1  0.26477224  0.57293673  0.53805190  1.0
  P  P6571  1  0.26477224  0.71579387  0.53805190  1.0
  P  P6572  1  0.26477224  0.85865101  0.53805190  1.0
  P  P6573  1  0.37588335  0.00150815  0.53805190  1.0
  P  P6574  1  0.37588335  0.14436530  0.53805190  1.0
  P  P6575  1  0.37588335  0.28722244  0.53805190  1.0
  P  P6576  1  0.37588335  0.43007958  0.53805190  1.0
  P  P6577  1  0.37588335  0.57293673  0.53805190  1.0
  P  P6578  1  0.37588335  0.71579387  0.53805190  1.0
  P  P6579  1  0.37588335  0.85865101  0.53805190  1.0
  P  P6580  1  0.48699446  0.00150815  0.53805190  1.0
  P  P6581  1  0.48699446  0.14436530  0.53805190  1.0
  P  P6582  1  0.48699446  0.28722244  0.53805190  1.0
  P  P6583  1  0.48699446  0.43007958  0.53805190  1.0
  P  P6584  1  0.48699446  0.57293673  0.53805190  1.0
  P  P6585  1  0.48699446  0.71579387  0.53805190  1.0
  P  P6586  1  0.48699446  0.85865101  0.53805190  1.0
  P  P6587  1  0.59810557  0.00150815  0.53805190  1.0
  P  P6588  1  0.59810557  0.14436530  0.53805190  1.0
  P  P6589  1  0.59810557  0.28722244  0.53805190  1.0
  P  P6590  1  0.59810557  0.43007958  0.53805190  1.0
  P  P6591  1  0.59810557  0.57293673  0.53805190  1.0
  P  P6592  1  0.59810557  0.71579387  0.53805190  1.0
  P  P6593  1  0.59810557  0.85865101  0.53805190  1.0
  P  P6594  1  0.70921669  0.00150815  0.53805190  1.0
  P  P6595  1  0.70921669  0.14436530  0.53805190  1.0
  P  P6596  1  0.70921669  0.28722244  0.53805190  1.0
  P  P6597  1  0.70921669  0.43007958  0.53805190  1.0
  P  P6598  1  0.70921669  0.57293673  0.53805190  1.0
  P  P6599  1  0.70921669  0.71579387  0.53805190  1.0
  P  P6600  1  0.70921669  0.85865101  0.53805190  1.0
  P  P6601  1  0.82032780  0.00150815  0.53805190  1.0
  P  P6602  1  0.82032780  0.14436530  0.53805190  1.0
  P  P6603  1  0.82032780  0.28722244  0.53805190  1.0
  P  P6604  1  0.82032780  0.43007958  0.53805190  1.0
  P  P6605  1  0.82032780  0.57293673  0.53805190  1.0
  P  P6606  1  0.82032780  0.71579387  0.53805190  1.0
  P  P6607  1  0.82032780  0.85865101  0.53805190  1.0
  P  P6608  1  0.93143891  0.00150815  0.53805190  1.0
  P  P6609  1  0.93143891  0.14436530  0.53805190  1.0
  P  P6610  1  0.93143891  0.28722244  0.53805190  1.0
  P  P6611  1  0.93143891  0.43007958  0.53805190  1.0
  P  P6612  1  0.93143891  0.57293673  0.53805190  1.0
  P  P6613  1  0.93143891  0.71579387  0.53805190  1.0
  P  P6614  1  0.93143891  0.85865101  0.53805190  1.0
  P  P6615  1  0.03152405  0.04611089  0.55718620  1.0
  P  P6616  1  0.03152405  0.18896804  0.55718620  1.0
  P  P6617  1  0.03152405  0.33182518  0.55718620  1.0
  P  P6618  1  0.03152405  0.47468232  0.55718620  1.0
  P  P6619  1  0.03152405  0.61753947  0.55718620  1.0
  P  P6620  1  0.03152405  0.76039661  0.55718620  1.0
  P  P6621  1  0.03152405  0.90325375  0.55718620  1.0
  P  P6622  1  0.14263517  0.04611089  0.55718620  1.0
  P  P6623  1  0.14263517  0.18896804  0.55718620  1.0
  P  P6624  1  0.14263517  0.33182518  0.55718620  1.0
  P  P6625  1  0.14263517  0.47468232  0.55718620  1.0
  P  P6626  1  0.14263517  0.61753947  0.55718620  1.0
  P  P6627  1  0.14263517  0.76039661  0.55718620  1.0
  P  P6628  1  0.14263517  0.90325375  0.55718620  1.0
  P  P6629  1  0.25374628  0.04611089  0.55718620  1.0
  P  P6630  1  0.25374628  0.18896804  0.55718620  1.0
  P  P6631  1  0.25374628  0.33182518  0.55718620  1.0
  P  P6632  1  0.25374628  0.47468232  0.55718620  1.0
  P  P6633  1  0.25374628  0.61753947  0.55718620  1.0
  P  P6634  1  0.25374628  0.76039661  0.55718620  1.0
  P  P6635  1  0.25374628  0.90325375  0.55718620  1.0
  P  P6636  1  0.36485739  0.04611089  0.55718620  1.0
  P  P6637  1  0.36485739  0.18896804  0.55718620  1.0
  P  P6638  1  0.36485739  0.33182518  0.55718620  1.0
  P  P6639  1  0.36485739  0.47468232  0.55718620  1.0
  P  P6640  1  0.36485739  0.61753947  0.55718620  1.0
  P  P6641  1  0.36485739  0.76039661  0.55718620  1.0
  P  P6642  1  0.36485739  0.90325375  0.55718620  1.0
  P  P6643  1  0.47596850  0.04611089  0.55718620  1.0
  P  P6644  1  0.47596850  0.18896804  0.55718620  1.0
  P  P6645  1  0.47596850  0.33182518  0.55718620  1.0
  P  P6646  1  0.47596850  0.47468232  0.55718620  1.0
  P  P6647  1  0.47596850  0.61753947  0.55718620  1.0
  P  P6648  1  0.47596850  0.76039661  0.55718620  1.0
  P  P6649  1  0.47596850  0.90325375  0.55718620  1.0
  P  P6650  1  0.58707961  0.04611089  0.55718620  1.0
  P  P6651  1  0.58707961  0.18896804  0.55718620  1.0
  P  P6652  1  0.58707961  0.33182518  0.55718620  1.0
  P  P6653  1  0.58707961  0.47468232  0.55718620  1.0
  P  P6654  1  0.58707961  0.61753947  0.55718620  1.0
  P  P6655  1  0.58707961  0.76039661  0.55718620  1.0
  P  P6656  1  0.58707961  0.90325375  0.55718620  1.0
  P  P6657  1  0.69819072  0.04611089  0.55718620  1.0
  P  P6658  1  0.69819072  0.18896804  0.55718620  1.0
  P  P6659  1  0.69819072  0.33182518  0.55718620  1.0
  P  P6660  1  0.69819072  0.47468232  0.55718620  1.0
  P  P6661  1  0.69819072  0.61753947  0.55718620  1.0
  P  P6662  1  0.69819072  0.76039661  0.55718620  1.0
  P  P6663  1  0.69819072  0.90325375  0.55718620  1.0
  P  P6664  1  0.80930183  0.04611089  0.55718620  1.0
  P  P6665  1  0.80930183  0.18896804  0.55718620  1.0
  P  P6666  1  0.80930183  0.33182518  0.55718620  1.0
  P  P6667  1  0.80930183  0.47468232  0.55718620  1.0
  P  P6668  1  0.80930183  0.61753947  0.55718620  1.0
  P  P6669  1  0.80930183  0.76039661  0.55718620  1.0
  P  P6670  1  0.80930183  0.90325375  0.55718620  1.0
  P  P6671  1  0.92041294  0.04611089  0.55718620  1.0
  P  P6672  1  0.92041294  0.18896804  0.55718620  1.0
  P  P6673  1  0.92041294  0.33182518  0.55718620  1.0
  P  P6674  1  0.92041294  0.47468232  0.55718620  1.0
  P  P6675  1  0.92041294  0.61753947  0.55718620  1.0
  P  P6676  1  0.92041294  0.76039661  0.55718620  1.0
  P  P6677  1  0.92041294  0.90325375  0.55718620  1.0
  P  P6678  1  0.05268808  0.05971634  0.60480525  1.0
  P  P6679  1  0.05268808  0.20257348  0.60480525  1.0
  P  P6680  1  0.05268808  0.34543062  0.60480525  1.0
  P  P6681  1  0.05268808  0.48828776  0.60480525  1.0
  P  P6682  1  0.05268808  0.63114491  0.60480525  1.0
  P  P6683  1  0.05268808  0.77400205  0.60480525  1.0
  P  P6684  1  0.05268808  0.91685919  0.60480525  1.0
  P  P6685  1  0.16379919  0.05971634  0.60480525  1.0
  P  P6686  1  0.16379919  0.20257348  0.60480525  1.0
  P  P6687  1  0.16379919  0.34543062  0.60480525  1.0
  P  P6688  1  0.16379919  0.48828776  0.60480525  1.0
  P  P6689  1  0.16379919  0.63114491  0.60480525  1.0
  P  P6690  1  0.16379919  0.77400205  0.60480525  1.0
  P  P6691  1  0.16379919  0.91685919  0.60480525  1.0
  P  P6692  1  0.27491030  0.05971634  0.60480525  1.0
  P  P6693  1  0.27491030  0.20257348  0.60480525  1.0
  P  P6694  1  0.27491030  0.34543062  0.60480525  1.0
  P  P6695  1  0.27491030  0.48828776  0.60480525  1.0
  P  P6696  1  0.27491030  0.63114491  0.60480525  1.0
  P  P6697  1  0.27491030  0.77400205  0.60480525  1.0
  P  P6698  1  0.27491030  0.91685919  0.60480525  1.0
  P  P6699  1  0.38602141  0.05971634  0.60480525  1.0
  P  P6700  1  0.38602141  0.20257348  0.60480525  1.0
  P  P6701  1  0.38602141  0.34543062  0.60480525  1.0
  P  P6702  1  0.38602141  0.48828776  0.60480525  1.0
  P  P6703  1  0.38602141  0.63114491  0.60480525  1.0
  P  P6704  1  0.38602141  0.77400205  0.60480525  1.0
  P  P6705  1  0.38602141  0.91685919  0.60480525  1.0
  P  P6706  1  0.49713252  0.05971634  0.60480525  1.0
  P  P6707  1  0.49713252  0.20257348  0.60480525  1.0
  P  P6708  1  0.49713252  0.34543062  0.60480525  1.0
  P  P6709  1  0.49713252  0.48828776  0.60480525  1.0
  P  P6710  1  0.49713252  0.63114491  0.60480525  1.0
  P  P6711  1  0.49713252  0.77400205  0.60480525  1.0
  P  P6712  1  0.49713252  0.91685919  0.60480525  1.0
  P  P6713  1  0.60824363  0.05971634  0.60480525  1.0
  P  P6714  1  0.60824363  0.20257348  0.60480525  1.0
  P  P6715  1  0.60824363  0.34543062  0.60480525  1.0
  P  P6716  1  0.60824363  0.48828776  0.60480525  1.0
  P  P6717  1  0.60824363  0.63114491  0.60480525  1.0
  P  P6718  1  0.60824363  0.77400205  0.60480525  1.0
  P  P6719  1  0.60824363  0.91685919  0.60480525  1.0
  P  P6720  1  0.71935474  0.05971634  0.60480525  1.0
  P  P6721  1  0.71935474  0.20257348  0.60480525  1.0
  P  P6722  1  0.71935474  0.34543062  0.60480525  1.0
  P  P6723  1  0.71935474  0.48828776  0.60480525  1.0
  P  P6724  1  0.71935474  0.63114491  0.60480525  1.0
  P  P6725  1  0.71935474  0.77400205  0.60480525  1.0
  P  P6726  1  0.71935474  0.91685919  0.60480525  1.0
  P  P6727  1  0.83046585  0.05971634  0.60480525  1.0
  P  P6728  1  0.83046585  0.20257348  0.60480525  1.0
  P  P6729  1  0.83046585  0.34543062  0.60480525  1.0
  P  P6730  1  0.83046585  0.48828776  0.60480525  1.0
  P  P6731  1  0.83046585  0.63114491  0.60480525  1.0
  P  P6732  1  0.83046585  0.77400205  0.60480525  1.0
  P  P6733  1  0.83046585  0.91685919  0.60480525  1.0
  P  P6734  1  0.94157696  0.05971634  0.60480525  1.0
  P  P6735  1  0.94157696  0.20257348  0.60480525  1.0
  P  P6736  1  0.94157696  0.34543062  0.60480525  1.0
  P  P6737  1  0.94157696  0.48828776  0.60480525  1.0
  P  P6738  1  0.94157696  0.63114491  0.60480525  1.0
  P  P6739  1  0.94157696  0.77400205  0.60480525  1.0
  P  P6740  1  0.94157696  0.91685919  0.60480525  1.0
  P  P6741  1  0.01036003  0.03250545  0.50956715  1.0
  P  P6742  1  0.01036003  0.17536259  0.50956715  1.0
  P  P6743  1  0.01036003  0.31821974  0.50956715  1.0
  P  P6744  1  0.01036003  0.46107688  0.50956715  1.0
  P  P6745  1  0.01036003  0.60393402  0.50956715  1.0
  P  P6746  1  0.01036003  0.74679117  0.50956715  1.0
  P  P6747  1  0.01036003  0.88964831  0.50956715  1.0
  P  P6748  1  0.12147114  0.03250545  0.50956715  1.0
  P  P6749  1  0.12147114  0.17536259  0.50956715  1.0
  P  P6750  1  0.12147114  0.31821974  0.50956715  1.0
  P  P6751  1  0.12147114  0.46107688  0.50956715  1.0
  P  P6752  1  0.12147114  0.60393402  0.50956715  1.0
  P  P6753  1  0.12147114  0.74679117  0.50956715  1.0
  P  P6754  1  0.12147114  0.88964831  0.50956715  1.0
  P  P6755  1  0.23258226  0.03250545  0.50956715  1.0
  P  P6756  1  0.23258226  0.17536259  0.50956715  1.0
  P  P6757  1  0.23258226  0.31821974  0.50956715  1.0
  P  P6758  1  0.23258226  0.46107688  0.50956715  1.0
  P  P6759  1  0.23258226  0.60393402  0.50956715  1.0
  P  P6760  1  0.23258226  0.74679117  0.50956715  1.0
  P  P6761  1  0.23258226  0.88964831  0.50956715  1.0
  P  P6762  1  0.34369337  0.03250545  0.50956715  1.0
  P  P6763  1  0.34369337  0.17536259  0.50956715  1.0
  P  P6764  1  0.34369337  0.31821974  0.50956715  1.0
  P  P6765  1  0.34369337  0.46107688  0.50956715  1.0
  P  P6766  1  0.34369337  0.60393402  0.50956715  1.0
  P  P6767  1  0.34369337  0.74679117  0.50956715  1.0
  P  P6768  1  0.34369337  0.88964831  0.50956715  1.0
  P  P6769  1  0.45480448  0.03250545  0.50956715  1.0
  P  P6770  1  0.45480448  0.17536259  0.50956715  1.0
  P  P6771  1  0.45480448  0.31821974  0.50956715  1.0
  P  P6772  1  0.45480448  0.46107688  0.50956715  1.0
  P  P6773  1  0.45480448  0.60393402  0.50956715  1.0
  P  P6774  1  0.45480448  0.74679117  0.50956715  1.0
  P  P6775  1  0.45480448  0.88964831  0.50956715  1.0
  P  P6776  1  0.56591559  0.03250545  0.50956715  1.0
  P  P6777  1  0.56591559  0.17536259  0.50956715  1.0
  P  P6778  1  0.56591559  0.31821974  0.50956715  1.0
  P  P6779  1  0.56591559  0.46107688  0.50956715  1.0
  P  P6780  1  0.56591559  0.60393402  0.50956715  1.0
  P  P6781  1  0.56591559  0.74679117  0.50956715  1.0
  P  P6782  1  0.56591559  0.88964831  0.50956715  1.0
  P  P6783  1  0.67702670  0.03250545  0.50956715  1.0
  P  P6784  1  0.67702670  0.17536259  0.50956715  1.0
  P  P6785  1  0.67702670  0.31821974  0.50956715  1.0
  P  P6786  1  0.67702670  0.46107688  0.50956715  1.0
  P  P6787  1  0.67702670  0.60393402  0.50956715  1.0
  P  P6788  1  0.67702670  0.74679117  0.50956715  1.0
  P  P6789  1  0.67702670  0.88964831  0.50956715  1.0
  P  P6790  1  0.78813781  0.03250545  0.50956715  1.0
  P  P6791  1  0.78813781  0.17536259  0.50956715  1.0
  P  P6792  1  0.78813781  0.31821974  0.50956715  1.0
  P  P6793  1  0.78813781  0.46107688  0.50956715  1.0
  P  P6794  1  0.78813781  0.60393402  0.50956715  1.0
  P  P6795  1  0.78813781  0.74679117  0.50956715  1.0
  P  P6796  1  0.78813781  0.88964831  0.50956715  1.0
  P  P6797  1  0.89924892  0.03250545  0.50956715  1.0
  P  P6798  1  0.89924892  0.17536259  0.50956715  1.0
  P  P6799  1  0.89924892  0.31821974  0.50956715  1.0
  P  P6800  1  0.89924892  0.46107688  0.50956715  1.0
  P  P6801  1  0.89924892  0.60393402  0.50956715  1.0
  P  P6802  1  0.89924892  0.74679117  0.50956715  1.0
  P  P6803  1  0.89924892  0.88964831  0.50956715  1.0
  P  P6804  1  0.04125260  0.11220290  0.58717280  1.0
  P  P6805  1  0.04125260  0.25506005  0.58717280  1.0
  P  P6806  1  0.04125260  0.39791719  0.58717280  1.0
  P  P6807  1  0.04125260  0.54077433  0.58717280  1.0
  P  P6808  1  0.04125260  0.68363148  0.58717280  1.0
  P  P6809  1  0.04125260  0.82648862  0.58717280  1.0
  P  P6810  1  0.04125260  0.96934576  0.58717280  1.0
  P  P6811  1  0.15236372  0.11220290  0.58717280  1.0
  P  P6812  1  0.15236372  0.25506005  0.58717280  1.0
  P  P6813  1  0.15236372  0.39791719  0.58717280  1.0
  P  P6814  1  0.15236372  0.54077433  0.58717280  1.0
  P  P6815  1  0.15236372  0.68363148  0.58717280  1.0
  P  P6816  1  0.15236372  0.82648862  0.58717280  1.0
  P  P6817  1  0.15236372  0.96934576  0.58717280  1.0
  P  P6818  1  0.26347483  0.11220290  0.58717280  1.0
  P  P6819  1  0.26347483  0.25506005  0.58717280  1.0
  P  P6820  1  0.26347483  0.39791719  0.58717280  1.0
  P  P6821  1  0.26347483  0.54077433  0.58717280  1.0
  P  P6822  1  0.26347483  0.68363148  0.58717280  1.0
  P  P6823  1  0.26347483  0.82648862  0.58717280  1.0
  P  P6824  1  0.26347483  0.96934576  0.58717280  1.0
  P  P6825  1  0.37458594  0.11220290  0.58717280  1.0
  P  P6826  1  0.37458594  0.25506005  0.58717280  1.0
  P  P6827  1  0.37458594  0.39791719  0.58717280  1.0
  P  P6828  1  0.37458594  0.54077433  0.58717280  1.0
  P  P6829  1  0.37458594  0.68363148  0.58717280  1.0
  P  P6830  1  0.37458594  0.82648862  0.58717280  1.0
  P  P6831  1  0.37458594  0.96934576  0.58717280  1.0
  P  P6832  1  0.48569705  0.11220290  0.58717280  1.0
  P  P6833  1  0.48569705  0.25506005  0.58717280  1.0
  P  P6834  1  0.48569705  0.39791719  0.58717280  1.0
  P  P6835  1  0.48569705  0.54077433  0.58717280  1.0
  P  P6836  1  0.48569705  0.68363148  0.58717280  1.0
  P  P6837  1  0.48569705  0.82648862  0.58717280  1.0
  P  P6838  1  0.48569705  0.96934576  0.58717280  1.0
  P  P6839  1  0.59680816  0.11220290  0.58717280  1.0
  P  P6840  1  0.59680816  0.25506005  0.58717280  1.0
  P  P6841  1  0.59680816  0.39791719  0.58717280  1.0
  P  P6842  1  0.59680816  0.54077433  0.58717280  1.0
  P  P6843  1  0.59680816  0.68363148  0.58717280  1.0
  P  P6844  1  0.59680816  0.82648862  0.58717280  1.0
  P  P6845  1  0.59680816  0.96934576  0.58717280  1.0
  P  P6846  1  0.70791927  0.11220290  0.58717280  1.0
  P  P6847  1  0.70791927  0.25506005  0.58717280  1.0
  P  P6848  1  0.70791927  0.39791719  0.58717280  1.0
  P  P6849  1  0.70791927  0.54077433  0.58717280  1.0
  P  P6850  1  0.70791927  0.68363148  0.58717280  1.0
  P  P6851  1  0.70791927  0.82648862  0.58717280  1.0
  P  P6852  1  0.70791927  0.96934576  0.58717280  1.0
  P  P6853  1  0.81903038  0.11220290  0.58717280  1.0
  P  P6854  1  0.81903038  0.25506005  0.58717280  1.0
  P  P6855  1  0.81903038  0.39791719  0.58717280  1.0
  P  P6856  1  0.81903038  0.54077433  0.58717280  1.0
  P  P6857  1  0.81903038  0.68363148  0.58717280  1.0
  P  P6858  1  0.81903038  0.82648862  0.58717280  1.0
  P  P6859  1  0.81903038  0.96934576  0.58717280  1.0
  P  P6860  1  0.93014149  0.11220290  0.58717280  1.0
  P  P6861  1  0.93014149  0.25506005  0.58717280  1.0
  P  P6862  1  0.93014149  0.39791719  0.58717280  1.0
  P  P6863  1  0.93014149  0.54077433  0.58717280  1.0
  P  P6864  1  0.93014149  0.68363148  0.58717280  1.0
  P  P6865  1  0.93014149  0.82648862  0.58717280  1.0
  P  P6866  1  0.93014149  0.96934576  0.58717280  1.0
  P  P6867  1  0.06241663  0.12580835  0.63479184  1.0
  P  P6868  1  0.06241663  0.26866549  0.63479184  1.0
  P  P6869  1  0.06241663  0.41152263  0.63479184  1.0
  P  P6870  1  0.06241663  0.55437978  0.63479184  1.0
  P  P6871  1  0.06241663  0.69723692  0.63479184  1.0
  P  P6872  1  0.06241663  0.84009406  0.63479184  1.0
  P  P6873  1  0.06241663  0.98295120  0.63479184  1.0
  P  P6874  1  0.17352774  0.12580835  0.63479184  1.0
  P  P6875  1  0.17352774  0.26866549  0.63479184  1.0
  P  P6876  1  0.17352774  0.41152263  0.63479184  1.0
  P  P6877  1  0.17352774  0.55437978  0.63479184  1.0
  P  P6878  1  0.17352774  0.69723692  0.63479184  1.0
  P  P6879  1  0.17352774  0.84009406  0.63479184  1.0
  P  P6880  1  0.17352774  0.98295120  0.63479184  1.0
  P  P6881  1  0.28463885  0.12580835  0.63479184  1.0
  P  P6882  1  0.28463885  0.26866549  0.63479184  1.0
  P  P6883  1  0.28463885  0.41152263  0.63479184  1.0
  P  P6884  1  0.28463885  0.55437978  0.63479184  1.0
  P  P6885  1  0.28463885  0.69723692  0.63479184  1.0
  P  P6886  1  0.28463885  0.84009406  0.63479184  1.0
  P  P6887  1  0.28463885  0.98295120  0.63479184  1.0
  P  P6888  1  0.39574996  0.12580835  0.63479184  1.0
  P  P6889  1  0.39574996  0.26866549  0.63479184  1.0
  P  P6890  1  0.39574996  0.41152263  0.63479184  1.0
  P  P6891  1  0.39574996  0.55437978  0.63479184  1.0
  P  P6892  1  0.39574996  0.69723692  0.63479184  1.0
  P  P6893  1  0.39574996  0.84009406  0.63479184  1.0
  P  P6894  1  0.39574996  0.98295120  0.63479184  1.0
  P  P6895  1  0.50686107  0.12580835  0.63479184  1.0
  P  P6896  1  0.50686107  0.26866549  0.63479184  1.0
  P  P6897  1  0.50686107  0.41152263  0.63479184  1.0
  P  P6898  1  0.50686107  0.55437978  0.63479184  1.0
  P  P6899  1  0.50686107  0.69723692  0.63479184  1.0
  P  P6900  1  0.50686107  0.84009406  0.63479184  1.0
  P  P6901  1  0.50686107  0.98295120  0.63479184  1.0
  P  P6902  1  0.61797218  0.12580835  0.63479184  1.0
  P  P6903  1  0.61797218  0.26866549  0.63479184  1.0
  P  P6904  1  0.61797218  0.41152263  0.63479184  1.0
  P  P6905  1  0.61797218  0.55437978  0.63479184  1.0
  P  P6906  1  0.61797218  0.69723692  0.63479184  1.0
  P  P6907  1  0.61797218  0.84009406  0.63479184  1.0
  P  P6908  1  0.61797218  0.98295120  0.63479184  1.0
  P  P6909  1  0.72908329  0.12580835  0.63479184  1.0
  P  P6910  1  0.72908329  0.26866549  0.63479184  1.0
  P  P6911  1  0.72908329  0.41152263  0.63479184  1.0
  P  P6912  1  0.72908329  0.55437978  0.63479184  1.0
  P  P6913  1  0.72908329  0.69723692  0.63479184  1.0
  P  P6914  1  0.72908329  0.84009406  0.63479184  1.0
  P  P6915  1  0.72908329  0.98295120  0.63479184  1.0
  P  P6916  1  0.84019440  0.12580835  0.63479184  1.0
  P  P6917  1  0.84019440  0.26866549  0.63479184  1.0
  P  P6918  1  0.84019440  0.41152263  0.63479184  1.0
  P  P6919  1  0.84019440  0.55437978  0.63479184  1.0
  P  P6920  1  0.84019440  0.69723692  0.63479184  1.0
  P  P6921  1  0.84019440  0.84009406  0.63479184  1.0
  P  P6922  1  0.84019440  0.98295120  0.63479184  1.0
  P  P6923  1  0.95130551  0.12580835  0.63479184  1.0
  P  P6924  1  0.95130551  0.26866549  0.63479184  1.0
  P  P6925  1  0.95130551  0.41152263  0.63479184  1.0
  P  P6926  1  0.95130551  0.55437978  0.63479184  1.0
  P  P6927  1  0.95130551  0.69723692  0.63479184  1.0
  P  P6928  1  0.95130551  0.84009406  0.63479184  1.0
  P  P6929  1  0.95130551  0.98295120  0.63479184  1.0
  P  P6930  1  0.02008858  0.09859746  0.53955375  1.0
  P  P6931  1  0.02008858  0.24145461  0.53955375  1.0
  P  P6932  1  0.02008858  0.38431175  0.53955375  1.0
  P  P6933  1  0.02008858  0.52716889  0.53955375  1.0
  P  P6934  1  0.02008858  0.67002603  0.53955375  1.0
  P  P6935  1  0.02008858  0.81288318  0.53955375  1.0
  P  P6936  1  0.02008858  0.95574032  0.53955375  1.0
  P  P6937  1  0.13119969  0.09859746  0.53955375  1.0
  P  P6938  1  0.13119969  0.24145461  0.53955375  1.0
  P  P6939  1  0.13119969  0.38431175  0.53955375  1.0
  P  P6940  1  0.13119969  0.52716889  0.53955375  1.0
  P  P6941  1  0.13119969  0.67002603  0.53955375  1.0
  P  P6942  1  0.13119969  0.81288318  0.53955375  1.0
  P  P6943  1  0.13119969  0.95574032  0.53955375  1.0
  P  P6944  1  0.24231081  0.09859746  0.53955375  1.0
  P  P6945  1  0.24231081  0.24145461  0.53955375  1.0
  P  P6946  1  0.24231081  0.38431175  0.53955375  1.0
  P  P6947  1  0.24231081  0.52716889  0.53955375  1.0
  P  P6948  1  0.24231081  0.67002603  0.53955375  1.0
  P  P6949  1  0.24231081  0.81288318  0.53955375  1.0
  P  P6950  1  0.24231081  0.95574032  0.53955375  1.0
  P  P6951  1  0.35342192  0.09859746  0.53955375  1.0
  P  P6952  1  0.35342192  0.24145461  0.53955375  1.0
  P  P6953  1  0.35342192  0.38431175  0.53955375  1.0
  P  P6954  1  0.35342192  0.52716889  0.53955375  1.0
  P  P6955  1  0.35342192  0.67002603  0.53955375  1.0
  P  P6956  1  0.35342192  0.81288318  0.53955375  1.0
  P  P6957  1  0.35342192  0.95574032  0.53955375  1.0
  P  P6958  1  0.46453303  0.09859746  0.53955375  1.0
  P  P6959  1  0.46453303  0.24145461  0.53955375  1.0
  P  P6960  1  0.46453303  0.38431175  0.53955375  1.0
  P  P6961  1  0.46453303  0.52716889  0.53955375  1.0
  P  P6962  1  0.46453303  0.67002603  0.53955375  1.0
  P  P6963  1  0.46453303  0.81288318  0.53955375  1.0
  P  P6964  1  0.46453303  0.95574032  0.53955375  1.0
  P  P6965  1  0.57564414  0.09859746  0.53955375  1.0
  P  P6966  1  0.57564414  0.24145461  0.53955375  1.0
  P  P6967  1  0.57564414  0.38431175  0.53955375  1.0
  P  P6968  1  0.57564414  0.52716889  0.53955375  1.0
  P  P6969  1  0.57564414  0.67002603  0.53955375  1.0
  P  P6970  1  0.57564414  0.81288318  0.53955375  1.0
  P  P6971  1  0.57564414  0.95574032  0.53955375  1.0
  P  P6972  1  0.68675525  0.09859746  0.53955375  1.0
  P  P6973  1  0.68675525  0.24145461  0.53955375  1.0
  P  P6974  1  0.68675525  0.38431175  0.53955375  1.0
  P  P6975  1  0.68675525  0.52716889  0.53955375  1.0
  P  P6976  1  0.68675525  0.67002603  0.53955375  1.0
  P  P6977  1  0.68675525  0.81288318  0.53955375  1.0
  P  P6978  1  0.68675525  0.95574032  0.53955375  1.0
  P  P6979  1  0.79786636  0.09859746  0.53955375  1.0
  P  P6980  1  0.79786636  0.24145461  0.53955375  1.0
  P  P6981  1  0.79786636  0.38431175  0.53955375  1.0
  P  P6982  1  0.79786636  0.52716889  0.53955375  1.0
  P  P6983  1  0.79786636  0.67002603  0.53955375  1.0
  P  P6984  1  0.79786636  0.81288318  0.53955375  1.0
  P  P6985  1  0.79786636  0.95574032  0.53955375  1.0
  P  P6986  1  0.90897747  0.09859746  0.53955375  1.0
  P  P6987  1  0.90897747  0.24145461  0.53955375  1.0
  P  P6988  1  0.90897747  0.38431175  0.53955375  1.0
  P  P6989  1  0.90897747  0.52716889  0.53955375  1.0
  P  P6990  1  0.90897747  0.67002603  0.53955375  1.0
  P  P6991  1  0.90897747  0.81288318  0.53955375  1.0
  P  P6992  1  0.90897747  0.95574032  0.53955375  1.0
  P  P6993  1  0.05398549  0.09187873  0.55568435  1.0
  P  P6994  1  0.05398549  0.23473587  0.55568435  1.0
  P  P6995  1  0.05398549  0.37759301  0.55568435  1.0
  P  P6996  1  0.05398549  0.52045016  0.55568435  1.0
  P  P6997  1  0.05398549  0.66330730  0.55568435  1.0
  P  P6998  1  0.05398549  0.80616444  0.55568435  1.0
  P  P6999  1  0.05398549  0.94902158  0.55568435  1.0
  P  P7000  1  0.16509660  0.09187873  0.55568435  1.0
  P  P7001  1  0.16509660  0.23473587  0.55568435  1.0
  P  P7002  1  0.16509660  0.37759301  0.55568435  1.0
  P  P7003  1  0.16509660  0.52045016  0.55568435  1.0
  P  P7004  1  0.16509660  0.66330730  0.55568435  1.0
  P  P7005  1  0.16509660  0.80616444  0.55568435  1.0
  P  P7006  1  0.16509660  0.94902158  0.55568435  1.0
  P  P7007  1  0.27620771  0.09187873  0.55568435  1.0
  P  P7008  1  0.27620771  0.23473587  0.55568435  1.0
  P  P7009  1  0.27620771  0.37759301  0.55568435  1.0
  P  P7010  1  0.27620771  0.52045016  0.55568435  1.0
  P  P7011  1  0.27620771  0.66330730  0.55568435  1.0
  P  P7012  1  0.27620771  0.80616444  0.55568435  1.0
  P  P7013  1  0.27620771  0.94902158  0.55568435  1.0
  P  P7014  1  0.38731882  0.09187873  0.55568435  1.0
  P  P7015  1  0.38731882  0.23473587  0.55568435  1.0
  P  P7016  1  0.38731882  0.37759301  0.55568435  1.0
  P  P7017  1  0.38731882  0.52045016  0.55568435  1.0
  P  P7018  1  0.38731882  0.66330730  0.55568435  1.0
  P  P7019  1  0.38731882  0.80616444  0.55568435  1.0
  P  P7020  1  0.38731882  0.94902158  0.55568435  1.0
  P  P7021  1  0.49842994  0.09187873  0.55568435  1.0
  P  P7022  1  0.49842994  0.23473587  0.55568435  1.0
  P  P7023  1  0.49842994  0.37759301  0.55568435  1.0
  P  P7024  1  0.49842994  0.52045016  0.55568435  1.0
  P  P7025  1  0.49842994  0.66330730  0.55568435  1.0
  P  P7026  1  0.49842994  0.80616444  0.55568435  1.0
  P  P7027  1  0.49842994  0.94902158  0.55568435  1.0
  P  P7028  1  0.60954105  0.09187873  0.55568435  1.0
  P  P7029  1  0.60954105  0.23473587  0.55568435  1.0
  P  P7030  1  0.60954105  0.37759301  0.55568435  1.0
  P  P7031  1  0.60954105  0.52045016  0.55568435  1.0
  P  P7032  1  0.60954105  0.66330730  0.55568435  1.0
  P  P7033  1  0.60954105  0.80616444  0.55568435  1.0
  P  P7034  1  0.60954105  0.94902158  0.55568435  1.0
  P  P7035  1  0.72065216  0.09187873  0.55568435  1.0
  P  P7036  1  0.72065216  0.23473587  0.55568435  1.0
  P  P7037  1  0.72065216  0.37759301  0.55568435  1.0
  P  P7038  1  0.72065216  0.52045016  0.55568435  1.0
  P  P7039  1  0.72065216  0.66330730  0.55568435  1.0
  P  P7040  1  0.72065216  0.80616444  0.55568435  1.0
  P  P7041  1  0.72065216  0.94902158  0.55568435  1.0
  P  P7042  1  0.83176327  0.09187873  0.55568435  1.0
  P  P7043  1  0.83176327  0.23473587  0.55568435  1.0
  P  P7044  1  0.83176327  0.37759301  0.55568435  1.0
  P  P7045  1  0.83176327  0.52045016  0.55568435  1.0
  P  P7046  1  0.83176327  0.66330730  0.55568435  1.0
  P  P7047  1  0.83176327  0.80616444  0.55568435  1.0
  P  P7048  1  0.83176327  0.94902158  0.55568435  1.0
  P  P7049  1  0.94287438  0.09187873  0.55568435  1.0
  P  P7050  1  0.94287438  0.23473587  0.55568435  1.0
  P  P7051  1  0.94287438  0.37759301  0.55568435  1.0
  P  P7052  1  0.94287438  0.52045016  0.55568435  1.0
  P  P7053  1  0.94287438  0.66330730  0.55568435  1.0
  P  P7054  1  0.94287438  0.80616444  0.55568435  1.0
  P  P7055  1  0.94287438  0.94902158  0.55568435  1.0
  P  P7056  1  0.07514951  0.10548417  0.60330339  1.0
  P  P7057  1  0.07514951  0.24834131  0.60330339  1.0
  P  P7058  1  0.07514951  0.39119846  0.60330339  1.0
  P  P7059  1  0.07514951  0.53405560  0.60330339  1.0
  P  P7060  1  0.07514951  0.67691274  0.60330339  1.0
  P  P7061  1  0.07514951  0.81976988  0.60330339  1.0
  P  P7062  1  0.07514951  0.96262703  0.60330339  1.0
  P  P7063  1  0.18626062  0.10548417  0.60330339  1.0
  P  P7064  1  0.18626062  0.24834131  0.60330339  1.0
  P  P7065  1  0.18626062  0.39119846  0.60330339  1.0
  P  P7066  1  0.18626062  0.53405560  0.60330339  1.0
  P  P7067  1  0.18626062  0.67691274  0.60330339  1.0
  P  P7068  1  0.18626062  0.81976988  0.60330339  1.0
  P  P7069  1  0.18626062  0.96262703  0.60330339  1.0
  P  P7070  1  0.29737173  0.10548417  0.60330339  1.0
  P  P7071  1  0.29737173  0.24834131  0.60330339  1.0
  P  P7072  1  0.29737173  0.39119846  0.60330339  1.0
  P  P7073  1  0.29737173  0.53405560  0.60330339  1.0
  P  P7074  1  0.29737173  0.67691274  0.60330339  1.0
  P  P7075  1  0.29737173  0.81976988  0.60330339  1.0
  P  P7076  1  0.29737173  0.96262703  0.60330339  1.0
  P  P7077  1  0.40848285  0.10548417  0.60330339  1.0
  P  P7078  1  0.40848285  0.24834131  0.60330339  1.0
  P  P7079  1  0.40848285  0.39119846  0.60330339  1.0
  P  P7080  1  0.40848285  0.53405560  0.60330339  1.0
  P  P7081  1  0.40848285  0.67691274  0.60330339  1.0
  P  P7082  1  0.40848285  0.81976988  0.60330339  1.0
  P  P7083  1  0.40848285  0.96262703  0.60330339  1.0
  P  P7084  1  0.51959396  0.10548417  0.60330339  1.0
  P  P7085  1  0.51959396  0.24834131  0.60330339  1.0
  P  P7086  1  0.51959396  0.39119846  0.60330339  1.0
  P  P7087  1  0.51959396  0.53405560  0.60330339  1.0
  P  P7088  1  0.51959396  0.67691274  0.60330339  1.0
  P  P7089  1  0.51959396  0.81976988  0.60330339  1.0
  P  P7090  1  0.51959396  0.96262703  0.60330339  1.0
  P  P7091  1  0.63070507  0.10548417  0.60330339  1.0
  P  P7092  1  0.63070507  0.24834131  0.60330339  1.0
  P  P7093  1  0.63070507  0.39119846  0.60330339  1.0
  P  P7094  1  0.63070507  0.53405560  0.60330339  1.0
  P  P7095  1  0.63070507  0.67691274  0.60330339  1.0
  P  P7096  1  0.63070507  0.81976988  0.60330339  1.0
  P  P7097  1  0.63070507  0.96262703  0.60330339  1.0
  P  P7098  1  0.74181618  0.10548417  0.60330339  1.0
  P  P7099  1  0.74181618  0.24834131  0.60330339  1.0
  P  P7100  1  0.74181618  0.39119846  0.60330339  1.0
  P  P7101  1  0.74181618  0.53405560  0.60330339  1.0
  P  P7102  1  0.74181618  0.67691274  0.60330339  1.0
  P  P7103  1  0.74181618  0.81976988  0.60330339  1.0
  P  P7104  1  0.74181618  0.96262703  0.60330339  1.0
  P  P7105  1  0.85292729  0.10548417  0.60330339  1.0
  P  P7106  1  0.85292729  0.24834131  0.60330339  1.0
  P  P7107  1  0.85292729  0.39119846  0.60330339  1.0
  P  P7108  1  0.85292729  0.53405560  0.60330339  1.0
  P  P7109  1  0.85292729  0.67691274  0.60330339  1.0
  P  P7110  1  0.85292729  0.81976988  0.60330339  1.0
  P  P7111  1  0.85292729  0.96262703  0.60330339  1.0
  P  P7112  1  0.96403840  0.10548417  0.60330339  1.0
  P  P7113  1  0.96403840  0.24834131  0.60330339  1.0
  P  P7114  1  0.96403840  0.39119846  0.60330339  1.0
  P  P7115  1  0.96403840  0.53405560  0.60330339  1.0
  P  P7116  1  0.96403840  0.67691274  0.60330339  1.0
  P  P7117  1  0.96403840  0.81976988  0.60330339  1.0
  P  P7118  1  0.96403840  0.96262703  0.60330339  1.0
  P  P7119  1  0.03282147  0.07827329  0.50806530  1.0
  P  P7120  1  0.03282147  0.22113043  0.50806530  1.0
  P  P7121  1  0.03282147  0.36398757  0.50806530  1.0
  P  P7122  1  0.03282147  0.50684471  0.50806530  1.0
  P  P7123  1  0.03282147  0.64970186  0.50806530  1.0
  P  P7124  1  0.03282147  0.79255900  0.50806530  1.0
  P  P7125  1  0.03282147  0.93541614  0.50806530  1.0
  P  P7126  1  0.14393258  0.07827329  0.50806530  1.0
  P  P7127  1  0.14393258  0.22113043  0.50806530  1.0
  P  P7128  1  0.14393258  0.36398757  0.50806530  1.0
  P  P7129  1  0.14393258  0.50684471  0.50806530  1.0
  P  P7130  1  0.14393258  0.64970186  0.50806530  1.0
  P  P7131  1  0.14393258  0.79255900  0.50806530  1.0
  P  P7132  1  0.14393258  0.93541614  0.50806530  1.0
  P  P7133  1  0.25504369  0.07827329  0.50806530  1.0
  P  P7134  1  0.25504369  0.22113043  0.50806530  1.0
  P  P7135  1  0.25504369  0.36398757  0.50806530  1.0
  P  P7136  1  0.25504369  0.50684471  0.50806530  1.0
  P  P7137  1  0.25504369  0.64970186  0.50806530  1.0
  P  P7138  1  0.25504369  0.79255900  0.50806530  1.0
  P  P7139  1  0.25504369  0.93541614  0.50806530  1.0
  P  P7140  1  0.36615480  0.07827329  0.50806530  1.0
  P  P7141  1  0.36615480  0.22113043  0.50806530  1.0
  P  P7142  1  0.36615480  0.36398757  0.50806530  1.0
  P  P7143  1  0.36615480  0.50684471  0.50806530  1.0
  P  P7144  1  0.36615480  0.64970186  0.50806530  1.0
  P  P7145  1  0.36615480  0.79255900  0.50806530  1.0
  P  P7146  1  0.36615480  0.93541614  0.50806530  1.0
  P  P7147  1  0.47726591  0.07827329  0.50806530  1.0
  P  P7148  1  0.47726591  0.22113043  0.50806530  1.0
  P  P7149  1  0.47726591  0.36398757  0.50806530  1.0
  P  P7150  1  0.47726591  0.50684471  0.50806530  1.0
  P  P7151  1  0.47726591  0.64970186  0.50806530  1.0
  P  P7152  1  0.47726591  0.79255900  0.50806530  1.0
  P  P7153  1  0.47726591  0.93541614  0.50806530  1.0
  P  P7154  1  0.58837703  0.07827329  0.50806530  1.0
  P  P7155  1  0.58837703  0.22113043  0.50806530  1.0
  P  P7156  1  0.58837703  0.36398757  0.50806530  1.0
  P  P7157  1  0.58837703  0.50684471  0.50806530  1.0
  P  P7158  1  0.58837703  0.64970186  0.50806530  1.0
  P  P7159  1  0.58837703  0.79255900  0.50806530  1.0
  P  P7160  1  0.58837703  0.93541614  0.50806530  1.0
  P  P7161  1  0.69948814  0.07827329  0.50806530  1.0
  P  P7162  1  0.69948814  0.22113043  0.50806530  1.0
  P  P7163  1  0.69948814  0.36398757  0.50806530  1.0
  P  P7164  1  0.69948814  0.50684471  0.50806530  1.0
  P  P7165  1  0.69948814  0.64970186  0.50806530  1.0
  P  P7166  1  0.69948814  0.79255900  0.50806530  1.0
  P  P7167  1  0.69948814  0.93541614  0.50806530  1.0
  P  P7168  1  0.81059925  0.07827329  0.50806530  1.0
  P  P7169  1  0.81059925  0.22113043  0.50806530  1.0
  P  P7170  1  0.81059925  0.36398757  0.50806530  1.0
  P  P7171  1  0.81059925  0.50684471  0.50806530  1.0
  P  P7172  1  0.81059925  0.64970186  0.50806530  1.0
  P  P7173  1  0.81059925  0.79255900  0.50806530  1.0
  P  P7174  1  0.81059925  0.93541614  0.50806530  1.0
  P  P7175  1  0.92171036  0.07827329  0.50806530  1.0
  P  P7176  1  0.92171036  0.22113043  0.50806530  1.0
  P  P7177  1  0.92171036  0.36398757  0.50806530  1.0
  P  P7178  1  0.92171036  0.50684471  0.50806530  1.0
  P  P7179  1  0.92171036  0.64970186  0.50806530  1.0
  P  P7180  1  0.92171036  0.79255900  0.50806530  1.0
  P  P7181  1  0.92171036  0.93541614  0.50806530  1.0
  P  P7182  1  0.09848630  0.03052566  0.59094862  1.0
  P  P7183  1  0.09848630  0.17338281  0.59094862  1.0
  P  P7184  1  0.09848630  0.31623995  0.59094862  1.0
  P  P7185  1  0.09848630  0.45909709  0.59094862  1.0
  P  P7186  1  0.09848630  0.60195424  0.59094862  1.0
  P  P7187  1  0.09848630  0.74481138  0.59094862  1.0
  P  P7188  1  0.09848630  0.88766852  0.59094862  1.0
  P  P7189  1  0.20959742  0.03052566  0.59094862  1.0
  P  P7190  1  0.20959742  0.17338281  0.59094862  1.0
  P  P7191  1  0.20959742  0.31623995  0.59094862  1.0
  P  P7192  1  0.20959742  0.45909709  0.59094862  1.0
  P  P7193  1  0.20959742  0.60195424  0.59094862  1.0
  P  P7194  1  0.20959742  0.74481138  0.59094862  1.0
  P  P7195  1  0.20959742  0.88766852  0.59094862  1.0
  P  P7196  1  0.32070853  0.03052566  0.59094862  1.0
  P  P7197  1  0.32070853  0.17338281  0.59094862  1.0
  P  P7198  1  0.32070853  0.31623995  0.59094862  1.0
  P  P7199  1  0.32070853  0.45909709  0.59094862  1.0
  P  P7200  1  0.32070853  0.60195424  0.59094862  1.0
  P  P7201  1  0.32070853  0.74481138  0.59094862  1.0
  P  P7202  1  0.32070853  0.88766852  0.59094862  1.0
  P  P7203  1  0.43181964  0.03052566  0.59094862  1.0
  P  P7204  1  0.43181964  0.17338281  0.59094862  1.0
  P  P7205  1  0.43181964  0.31623995  0.59094862  1.0
  P  P7206  1  0.43181964  0.45909709  0.59094862  1.0
  P  P7207  1  0.43181964  0.60195424  0.59094862  1.0
  P  P7208  1  0.43181964  0.74481138  0.59094862  1.0
  P  P7209  1  0.43181964  0.88766852  0.59094862  1.0
  P  P7210  1  0.54293075  0.03052566  0.59094862  1.0
  P  P7211  1  0.54293075  0.17338281  0.59094862  1.0
  P  P7212  1  0.54293075  0.31623995  0.59094862  1.0
  P  P7213  1  0.54293075  0.45909709  0.59094862  1.0
  P  P7214  1  0.54293075  0.60195424  0.59094862  1.0
  P  P7215  1  0.54293075  0.74481138  0.59094862  1.0
  P  P7216  1  0.54293075  0.88766852  0.59094862  1.0
  P  P7217  1  0.65404186  0.03052566  0.59094862  1.0
  P  P7218  1  0.65404186  0.17338281  0.59094862  1.0
  P  P7219  1  0.65404186  0.31623995  0.59094862  1.0
  P  P7220  1  0.65404186  0.45909709  0.59094862  1.0
  P  P7221  1  0.65404186  0.60195424  0.59094862  1.0
  P  P7222  1  0.65404186  0.74481138  0.59094862  1.0
  P  P7223  1  0.65404186  0.88766852  0.59094862  1.0
  P  P7224  1  0.76515297  0.03052566  0.59094862  1.0
  P  P7225  1  0.76515297  0.17338281  0.59094862  1.0
  P  P7226  1  0.76515297  0.31623995  0.59094862  1.0
  P  P7227  1  0.76515297  0.45909709  0.59094862  1.0
  P  P7228  1  0.76515297  0.60195424  0.59094862  1.0
  P  P7229  1  0.76515297  0.74481138  0.59094862  1.0
  P  P7230  1  0.76515297  0.88766852  0.59094862  1.0
  P  P7231  1  0.87626408  0.03052566  0.59094862  1.0
  P  P7232  1  0.87626408  0.17338281  0.59094862  1.0
  P  P7233  1  0.87626408  0.31623995  0.59094862  1.0
  P  P7234  1  0.87626408  0.45909709  0.59094862  1.0
  P  P7235  1  0.87626408  0.60195424  0.59094862  1.0
  P  P7236  1  0.87626408  0.74481138  0.59094862  1.0
  P  P7237  1  0.87626408  0.88766852  0.59094862  1.0
  P  P7238  1  0.98737519  0.03052566  0.59094862  1.0
  P  P7239  1  0.98737519  0.17338281  0.59094862  1.0
  P  P7240  1  0.98737519  0.31623995  0.59094862  1.0
  P  P7241  1  0.98737519  0.45909709  0.59094862  1.0
  P  P7242  1  0.98737519  0.60195424  0.59094862  1.0
  P  P7243  1  0.98737519  0.74481138  0.59094862  1.0
  P  P7244  1  0.98737519  0.88766852  0.59094862  1.0
  P  P7245  1  0.00853921  0.04413111  0.63856767  1.0
  P  P7246  1  0.00853921  0.18698825  0.63856767  1.0
  P  P7247  1  0.00853921  0.32984539  0.63856767  1.0
  P  P7248  1  0.00853921  0.47270253  0.63856767  1.0
  P  P7249  1  0.00853921  0.61555968  0.63856767  1.0
  P  P7250  1  0.00853921  0.75841682  0.63856767  1.0
  P  P7251  1  0.00853921  0.90127396  0.63856767  1.0
  P  P7252  1  0.11965033  0.04413111  0.63856767  1.0
  P  P7253  1  0.11965033  0.18698825  0.63856767  1.0
  P  P7254  1  0.11965033  0.32984539  0.63856767  1.0
  P  P7255  1  0.11965033  0.47270253  0.63856767  1.0
  P  P7256  1  0.11965033  0.61555968  0.63856767  1.0
  P  P7257  1  0.11965033  0.75841682  0.63856767  1.0
  P  P7258  1  0.11965033  0.90127396  0.63856767  1.0
  P  P7259  1  0.23076144  0.04413111  0.63856767  1.0
  P  P7260  1  0.23076144  0.18698825  0.63856767  1.0
  P  P7261  1  0.23076144  0.32984539  0.63856767  1.0
  P  P7262  1  0.23076144  0.47270253  0.63856767  1.0
  P  P7263  1  0.23076144  0.61555968  0.63856767  1.0
  P  P7264  1  0.23076144  0.75841682  0.63856767  1.0
  P  P7265  1  0.23076144  0.90127396  0.63856767  1.0
  P  P7266  1  0.34187255  0.04413111  0.63856767  1.0
  P  P7267  1  0.34187255  0.18698825  0.63856767  1.0
  P  P7268  1  0.34187255  0.32984539  0.63856767  1.0
  P  P7269  1  0.34187255  0.47270253  0.63856767  1.0
  P  P7270  1  0.34187255  0.61555968  0.63856767  1.0
  P  P7271  1  0.34187255  0.75841682  0.63856767  1.0
  P  P7272  1  0.34187255  0.90127396  0.63856767  1.0
  P  P7273  1  0.45298366  0.04413111  0.63856767  1.0
  P  P7274  1  0.45298366  0.18698825  0.63856767  1.0
  P  P7275  1  0.45298366  0.32984539  0.63856767  1.0
  P  P7276  1  0.45298366  0.47270253  0.63856767  1.0
  P  P7277  1  0.45298366  0.61555968  0.63856767  1.0
  P  P7278  1  0.45298366  0.75841682  0.63856767  1.0
  P  P7279  1  0.45298366  0.90127396  0.63856767  1.0
  P  P7280  1  0.56409477  0.04413111  0.63856767  1.0
  P  P7281  1  0.56409477  0.18698825  0.63856767  1.0
  P  P7282  1  0.56409477  0.32984539  0.63856767  1.0
  P  P7283  1  0.56409477  0.47270253  0.63856767  1.0
  P  P7284  1  0.56409477  0.61555968  0.63856767  1.0
  P  P7285  1  0.56409477  0.75841682  0.63856767  1.0
  P  P7286  1  0.56409477  0.90127396  0.63856767  1.0
  P  P7287  1  0.67520588  0.04413111  0.63856767  1.0
  P  P7288  1  0.67520588  0.18698825  0.63856767  1.0
  P  P7289  1  0.67520588  0.32984539  0.63856767  1.0
  P  P7290  1  0.67520588  0.47270253  0.63856767  1.0
  P  P7291  1  0.67520588  0.61555968  0.63856767  1.0
  P  P7292  1  0.67520588  0.75841682  0.63856767  1.0
  P  P7293  1  0.67520588  0.90127396  0.63856767  1.0
  P  P7294  1  0.78631699  0.04413111  0.63856767  1.0
  P  P7295  1  0.78631699  0.18698825  0.63856767  1.0
  P  P7296  1  0.78631699  0.32984539  0.63856767  1.0
  P  P7297  1  0.78631699  0.47270253  0.63856767  1.0
  P  P7298  1  0.78631699  0.61555968  0.63856767  1.0
  P  P7299  1  0.78631699  0.75841682  0.63856767  1.0
  P  P7300  1  0.78631699  0.90127396  0.63856767  1.0
  P  P7301  1  0.89742810  0.04413111  0.63856767  1.0
  P  P7302  1  0.89742810  0.18698825  0.63856767  1.0
  P  P7303  1  0.89742810  0.32984539  0.63856767  1.0
  P  P7304  1  0.89742810  0.47270253  0.63856767  1.0
  P  P7305  1  0.89742810  0.61555968  0.63856767  1.0
  P  P7306  1  0.89742810  0.75841682  0.63856767  1.0
  P  P7307  1  0.89742810  0.90127396  0.63856767  1.0
  P  P7308  1  0.07732228  0.01692022  0.54332957  1.0
  P  P7309  1  0.07732228  0.15977736  0.54332957  1.0
  P  P7310  1  0.07732228  0.30263451  0.54332957  1.0
  P  P7311  1  0.07732228  0.44549165  0.54332957  1.0
  P  P7312  1  0.07732228  0.58834879  0.54332957  1.0
  P  P7313  1  0.07732228  0.73120594  0.54332957  1.0
  P  P7314  1  0.07732228  0.87406308  0.54332957  1.0
  P  P7315  1  0.18843339  0.01692022  0.54332957  1.0
  P  P7316  1  0.18843339  0.15977736  0.54332957  1.0
  P  P7317  1  0.18843339  0.30263451  0.54332957  1.0
  P  P7318  1  0.18843339  0.44549165  0.54332957  1.0
  P  P7319  1  0.18843339  0.58834879  0.54332957  1.0
  P  P7320  1  0.18843339  0.73120594  0.54332957  1.0
  P  P7321  1  0.18843339  0.87406308  0.54332957  1.0
  P  P7322  1  0.29954451  0.01692022  0.54332957  1.0
  P  P7323  1  0.29954451  0.15977736  0.54332957  1.0
  P  P7324  1  0.29954451  0.30263451  0.54332957  1.0
  P  P7325  1  0.29954451  0.44549165  0.54332957  1.0
  P  P7326  1  0.29954451  0.58834879  0.54332957  1.0
  P  P7327  1  0.29954451  0.73120594  0.54332957  1.0
  P  P7328  1  0.29954451  0.87406308  0.54332957  1.0
  P  P7329  1  0.41065562  0.01692022  0.54332957  1.0
  P  P7330  1  0.41065562  0.15977736  0.54332957  1.0
  P  P7331  1  0.41065562  0.30263451  0.54332957  1.0
  P  P7332  1  0.41065562  0.44549165  0.54332957  1.0
  P  P7333  1  0.41065562  0.58834879  0.54332957  1.0
  P  P7334  1  0.41065562  0.73120594  0.54332957  1.0
  P  P7335  1  0.41065562  0.87406308  0.54332957  1.0
  P  P7336  1  0.52176673  0.01692022  0.54332957  1.0
  P  P7337  1  0.52176673  0.15977736  0.54332957  1.0
  P  P7338  1  0.52176673  0.30263451  0.54332957  1.0
  P  P7339  1  0.52176673  0.44549165  0.54332957  1.0
  P  P7340  1  0.52176673  0.58834879  0.54332957  1.0
  P  P7341  1  0.52176673  0.73120594  0.54332957  1.0
  P  P7342  1  0.52176673  0.87406308  0.54332957  1.0
  P  P7343  1  0.63287784  0.01692022  0.54332957  1.0
  P  P7344  1  0.63287784  0.15977736  0.54332957  1.0
  P  P7345  1  0.63287784  0.30263451  0.54332957  1.0
  P  P7346  1  0.63287784  0.44549165  0.54332957  1.0
  P  P7347  1  0.63287784  0.58834879  0.54332957  1.0
  P  P7348  1  0.63287784  0.73120594  0.54332957  1.0
  P  P7349  1  0.63287784  0.87406308  0.54332957  1.0
  P  P7350  1  0.74398895  0.01692022  0.54332957  1.0
  P  P7351  1  0.74398895  0.15977736  0.54332957  1.0
  P  P7352  1  0.74398895  0.30263451  0.54332957  1.0
  P  P7353  1  0.74398895  0.44549165  0.54332957  1.0
  P  P7354  1  0.74398895  0.58834879  0.54332957  1.0
  P  P7355  1  0.74398895  0.73120594  0.54332957  1.0
  P  P7356  1  0.74398895  0.87406308  0.54332957  1.0
  P  P7357  1  0.85510006  0.01692022  0.54332957  1.0
  P  P7358  1  0.85510006  0.15977736  0.54332957  1.0
  P  P7359  1  0.85510006  0.30263451  0.54332957  1.0
  P  P7360  1  0.85510006  0.44549165  0.54332957  1.0
  P  P7361  1  0.85510006  0.58834879  0.54332957  1.0
  P  P7362  1  0.85510006  0.73120594  0.54332957  1.0
  P  P7363  1  0.85510006  0.87406308  0.54332957  1.0
  P  P7364  1  0.96621117  0.01692022  0.54332957  1.0
  P  P7365  1  0.96621117  0.15977736  0.54332957  1.0
  P  P7366  1  0.96621117  0.30263451  0.54332957  1.0
  P  P7367  1  0.96621117  0.44549165  0.54332957  1.0
  P  P7368  1  0.96621117  0.58834879  0.54332957  1.0
  P  P7369  1  0.96621117  0.73120594  0.54332957  1.0
  P  P7370  1  0.96621117  0.87406308  0.54332957  1.0
  P  P7371  1  0.10786290  0.03069883  0.55190852  1.0
  P  P7372  1  0.10786290  0.17355597  0.55190852  1.0
  P  P7373  1  0.10786290  0.31641311  0.55190852  1.0
  P  P7374  1  0.10786290  0.45927025  0.55190852  1.0
  P  P7375  1  0.10786290  0.60212740  0.55190852  1.0
  P  P7376  1  0.10786290  0.74498454  0.55190852  1.0
  P  P7377  1  0.10786290  0.88784168  0.55190852  1.0
  P  P7378  1  0.21897401  0.03069883  0.55190852  1.0
  P  P7379  1  0.21897401  0.17355597  0.55190852  1.0
  P  P7380  1  0.21897401  0.31641311  0.55190852  1.0
  P  P7381  1  0.21897401  0.45927025  0.55190852  1.0
  P  P7382  1  0.21897401  0.60212740  0.55190852  1.0
  P  P7383  1  0.21897401  0.74498454  0.55190852  1.0
  P  P7384  1  0.21897401  0.88784168  0.55190852  1.0
  P  P7385  1  0.33008512  0.03069883  0.55190852  1.0
  P  P7386  1  0.33008512  0.17355597  0.55190852  1.0
  P  P7387  1  0.33008512  0.31641311  0.55190852  1.0
  P  P7388  1  0.33008512  0.45927025  0.55190852  1.0
  P  P7389  1  0.33008512  0.60212740  0.55190852  1.0
  P  P7390  1  0.33008512  0.74498454  0.55190852  1.0
  P  P7391  1  0.33008512  0.88784168  0.55190852  1.0
  P  P7392  1  0.44119624  0.03069883  0.55190852  1.0
  P  P7393  1  0.44119624  0.17355597  0.55190852  1.0
  P  P7394  1  0.44119624  0.31641311  0.55190852  1.0
  P  P7395  1  0.44119624  0.45927025  0.55190852  1.0
  P  P7396  1  0.44119624  0.60212740  0.55190852  1.0
  P  P7397  1  0.44119624  0.74498454  0.55190852  1.0
  P  P7398  1  0.44119624  0.88784168  0.55190852  1.0
  P  P7399  1  0.55230735  0.03069883  0.55190852  1.0
  P  P7400  1  0.55230735  0.17355597  0.55190852  1.0
  P  P7401  1  0.55230735  0.31641311  0.55190852  1.0
  P  P7402  1  0.55230735  0.45927025  0.55190852  1.0
  P  P7403  1  0.55230735  0.60212740  0.55190852  1.0
  P  P7404  1  0.55230735  0.74498454  0.55190852  1.0
  P  P7405  1  0.55230735  0.88784168  0.55190852  1.0
  P  P7406  1  0.66341846  0.03069883  0.55190852  1.0
  P  P7407  1  0.66341846  0.17355597  0.55190852  1.0
  P  P7408  1  0.66341846  0.31641311  0.55190852  1.0
  P  P7409  1  0.66341846  0.45927025  0.55190852  1.0
  P  P7410  1  0.66341846  0.60212740  0.55190852  1.0
  P  P7411  1  0.66341846  0.74498454  0.55190852  1.0
  P  P7412  1  0.66341846  0.88784168  0.55190852  1.0
  P  P7413  1  0.77452957  0.03069883  0.55190852  1.0
  P  P7414  1  0.77452957  0.17355597  0.55190852  1.0
  P  P7415  1  0.77452957  0.31641311  0.55190852  1.0
  P  P7416  1  0.77452957  0.45927025  0.55190852  1.0
  P  P7417  1  0.77452957  0.60212740  0.55190852  1.0
  P  P7418  1  0.77452957  0.74498454  0.55190852  1.0
  P  P7419  1  0.77452957  0.88784168  0.55190852  1.0
  P  P7420  1  0.88564068  0.03069883  0.55190852  1.0
  P  P7421  1  0.88564068  0.17355597  0.55190852  1.0
  P  P7422  1  0.88564068  0.31641311  0.55190852  1.0
  P  P7423  1  0.88564068  0.45927025  0.55190852  1.0
  P  P7424  1  0.88564068  0.60212740  0.55190852  1.0
  P  P7425  1  0.88564068  0.74498454  0.55190852  1.0
  P  P7426  1  0.88564068  0.88784168  0.55190852  1.0
  P  P7427  1  0.99675179  0.03069883  0.55190852  1.0
  P  P7428  1  0.99675179  0.17355597  0.55190852  1.0
  P  P7429  1  0.99675179  0.31641311  0.55190852  1.0
  P  P7430  1  0.99675179  0.45927025  0.55190852  1.0
  P  P7431  1  0.99675179  0.60212740  0.55190852  1.0
  P  P7432  1  0.99675179  0.74498454  0.55190852  1.0
  P  P7433  1  0.99675179  0.88784168  0.55190852  1.0
  P  P7434  1  0.01791581  0.04430427  0.59952757  1.0
  P  P7435  1  0.01791581  0.18716141  0.59952757  1.0
  P  P7436  1  0.01791581  0.33001855  0.59952757  1.0
  P  P7437  1  0.01791581  0.47287570  0.59952757  1.0
  P  P7438  1  0.01791581  0.61573284  0.59952757  1.0
  P  P7439  1  0.01791581  0.75858998  0.59952757  1.0
  P  P7440  1  0.01791581  0.90144713  0.59952757  1.0
  P  P7441  1  0.12902692  0.04430427  0.59952757  1.0
  P  P7442  1  0.12902692  0.18716141  0.59952757  1.0
  P  P7443  1  0.12902692  0.33001855  0.59952757  1.0
  P  P7444  1  0.12902692  0.47287570  0.59952757  1.0
  P  P7445  1  0.12902692  0.61573284  0.59952757  1.0
  P  P7446  1  0.12902692  0.75858998  0.59952757  1.0
  P  P7447  1  0.12902692  0.90144713  0.59952757  1.0
  P  P7448  1  0.24013803  0.04430427  0.59952757  1.0
  P  P7449  1  0.24013803  0.18716141  0.59952757  1.0
  P  P7450  1  0.24013803  0.33001855  0.59952757  1.0
  P  P7451  1  0.24013803  0.47287570  0.59952757  1.0
  P  P7452  1  0.24013803  0.61573284  0.59952757  1.0
  P  P7453  1  0.24013803  0.75858998  0.59952757  1.0
  P  P7454  1  0.24013803  0.90144713  0.59952757  1.0
  P  P7455  1  0.35124915  0.04430427  0.59952757  1.0
  P  P7456  1  0.35124915  0.18716141  0.59952757  1.0
  P  P7457  1  0.35124915  0.33001855  0.59952757  1.0
  P  P7458  1  0.35124915  0.47287570  0.59952757  1.0
  P  P7459  1  0.35124915  0.61573284  0.59952757  1.0
  P  P7460  1  0.35124915  0.75858998  0.59952757  1.0
  P  P7461  1  0.35124915  0.90144713  0.59952757  1.0
  P  P7462  1  0.46236026  0.04430427  0.59952757  1.0
  P  P7463  1  0.46236026  0.18716141  0.59952757  1.0
  P  P7464  1  0.46236026  0.33001855  0.59952757  1.0
  P  P7465  1  0.46236026  0.47287570  0.59952757  1.0
  P  P7466  1  0.46236026  0.61573284  0.59952757  1.0
  P  P7467  1  0.46236026  0.75858998  0.59952757  1.0
  P  P7468  1  0.46236026  0.90144713  0.59952757  1.0
  P  P7469  1  0.57347137  0.04430427  0.59952757  1.0
  P  P7470  1  0.57347137  0.18716141  0.59952757  1.0
  P  P7471  1  0.57347137  0.33001855  0.59952757  1.0
  P  P7472  1  0.57347137  0.47287570  0.59952757  1.0
  P  P7473  1  0.57347137  0.61573284  0.59952757  1.0
  P  P7474  1  0.57347137  0.75858998  0.59952757  1.0
  P  P7475  1  0.57347137  0.90144713  0.59952757  1.0
  P  P7476  1  0.68458248  0.04430427  0.59952757  1.0
  P  P7477  1  0.68458248  0.18716141  0.59952757  1.0
  P  P7478  1  0.68458248  0.33001855  0.59952757  1.0
  P  P7479  1  0.68458248  0.47287570  0.59952757  1.0
  P  P7480  1  0.68458248  0.61573284  0.59952757  1.0
  P  P7481  1  0.68458248  0.75858998  0.59952757  1.0
  P  P7482  1  0.68458248  0.90144713  0.59952757  1.0
  P  P7483  1  0.79569359  0.04430427  0.59952757  1.0
  P  P7484  1  0.79569359  0.18716141  0.59952757  1.0
  P  P7485  1  0.79569359  0.33001855  0.59952757  1.0
  P  P7486  1  0.79569359  0.47287570  0.59952757  1.0
  P  P7487  1  0.79569359  0.61573284  0.59952757  1.0
  P  P7488  1  0.79569359  0.75858998  0.59952757  1.0
  P  P7489  1  0.79569359  0.90144713  0.59952757  1.0
  P  P7490  1  0.90680470  0.04430427  0.59952757  1.0
  P  P7491  1  0.90680470  0.18716141  0.59952757  1.0
  P  P7492  1  0.90680470  0.33001855  0.59952757  1.0
  P  P7493  1  0.90680470  0.47287570  0.59952757  1.0
  P  P7494  1  0.90680470  0.61573284  0.59952757  1.0
  P  P7495  1  0.90680470  0.75858998  0.59952757  1.0
  P  P7496  1  0.90680470  0.90144713  0.59952757  1.0
  P  P7497  1  0.08669888  0.01709338  0.50428947  1.0
  P  P7498  1  0.08669888  0.15995053  0.50428947  1.0
  P  P7499  1  0.08669888  0.30280767  0.50428947  1.0
  P  P7500  1  0.08669888  0.44566481  0.50428947  1.0
  P  P7501  1  0.08669888  0.58852196  0.50428947  1.0
  P  P7502  1  0.08669888  0.73137910  0.50428947  1.0
  P  P7503  1  0.08669888  0.87423624  0.50428947  1.0
  P  P7504  1  0.19780999  0.01709338  0.50428947  1.0
  P  P7505  1  0.19780999  0.15995053  0.50428947  1.0
  P  P7506  1  0.19780999  0.30280767  0.50428947  1.0
  P  P7507  1  0.19780999  0.44566481  0.50428947  1.0
  P  P7508  1  0.19780999  0.58852196  0.50428947  1.0
  P  P7509  1  0.19780999  0.73137910  0.50428947  1.0
  P  P7510  1  0.19780999  0.87423624  0.50428947  1.0
  P  P7511  1  0.30892110  0.01709338  0.50428947  1.0
  P  P7512  1  0.30892110  0.15995053  0.50428947  1.0
  P  P7513  1  0.30892110  0.30280767  0.50428947  1.0
  P  P7514  1  0.30892110  0.44566481  0.50428947  1.0
  P  P7515  1  0.30892110  0.58852196  0.50428947  1.0
  P  P7516  1  0.30892110  0.73137910  0.50428947  1.0
  P  P7517  1  0.30892110  0.87423624  0.50428947  1.0
  P  P7518  1  0.42003221  0.01709338  0.50428947  1.0
  P  P7519  1  0.42003221  0.15995053  0.50428947  1.0
  P  P7520  1  0.42003221  0.30280767  0.50428947  1.0
  P  P7521  1  0.42003221  0.44566481  0.50428947  1.0
  P  P7522  1  0.42003221  0.58852196  0.50428947  1.0
  P  P7523  1  0.42003221  0.73137910  0.50428947  1.0
  P  P7524  1  0.42003221  0.87423624  0.50428947  1.0
  P  P7525  1  0.53114333  0.01709338  0.50428947  1.0
  P  P7526  1  0.53114333  0.15995053  0.50428947  1.0
  P  P7527  1  0.53114333  0.30280767  0.50428947  1.0
  P  P7528  1  0.53114333  0.44566481  0.50428947  1.0
  P  P7529  1  0.53114333  0.58852196  0.50428947  1.0
  P  P7530  1  0.53114333  0.73137910  0.50428947  1.0
  P  P7531  1  0.53114333  0.87423624  0.50428947  1.0
  P  P7532  1  0.64225444  0.01709338  0.50428947  1.0
  P  P7533  1  0.64225444  0.15995053  0.50428947  1.0
  P  P7534  1  0.64225444  0.30280767  0.50428947  1.0
  P  P7535  1  0.64225444  0.44566481  0.50428947  1.0
  P  P7536  1  0.64225444  0.58852196  0.50428947  1.0
  P  P7537  1  0.64225444  0.73137910  0.50428947  1.0
  P  P7538  1  0.64225444  0.87423624  0.50428947  1.0
  P  P7539  1  0.75336555  0.01709338  0.50428947  1.0
  P  P7540  1  0.75336555  0.15995053  0.50428947  1.0
  P  P7541  1  0.75336555  0.30280767  0.50428947  1.0
  P  P7542  1  0.75336555  0.44566481  0.50428947  1.0
  P  P7543  1  0.75336555  0.58852196  0.50428947  1.0
  P  P7544  1  0.75336555  0.73137910  0.50428947  1.0
  P  P7545  1  0.75336555  0.87423624  0.50428947  1.0
  P  P7546  1  0.86447666  0.01709338  0.50428947  1.0
  P  P7547  1  0.86447666  0.15995053  0.50428947  1.0
  P  P7548  1  0.86447666  0.30280767  0.50428947  1.0
  P  P7549  1  0.86447666  0.44566481  0.50428947  1.0
  P  P7550  1  0.86447666  0.58852196  0.50428947  1.0
  P  P7551  1  0.86447666  0.73137910  0.50428947  1.0
  P  P7552  1  0.86447666  0.87423624  0.50428947  1.0
  P  P7553  1  0.97558777  0.01709338  0.50428947  1.0
  P  P7554  1  0.97558777  0.15995053  0.50428947  1.0
  P  P7555  1  0.97558777  0.30280767  0.50428947  1.0
  P  P7556  1  0.97558777  0.44566481  0.50428947  1.0
  P  P7557  1  0.97558777  0.58852196  0.50428947  1.0
  P  P7558  1  0.97558777  0.73137910  0.50428947  1.0
  P  P7559  1  0.97558777  0.87423624  0.50428947  1.0
  P  P7560  1  0.06585265  0.01990993  0.71548282  1.0
  P  P7561  1  0.06585265  0.16276707  0.71548282  1.0
  P  P7562  1  0.06585265  0.30562422  0.71548282  1.0
  P  P7563  1  0.06585265  0.44848136  0.71548282  1.0
  P  P7564  1  0.06585265  0.59133850  0.71548282  1.0
  P  P7565  1  0.06585265  0.73419564  0.71548282  1.0
  P  P7566  1  0.06585265  0.87705279  0.71548282  1.0
  P  P7567  1  0.17696376  0.01990993  0.71548282  1.0
  P  P7568  1  0.17696376  0.16276707  0.71548282  1.0
  P  P7569  1  0.17696376  0.30562422  0.71548282  1.0
  P  P7570  1  0.17696376  0.44848136  0.71548282  1.0
  P  P7571  1  0.17696376  0.59133850  0.71548282  1.0
  P  P7572  1  0.17696376  0.73419564  0.71548282  1.0
  P  P7573  1  0.17696376  0.87705279  0.71548282  1.0
  P  P7574  1  0.28807487  0.01990993  0.71548282  1.0
  P  P7575  1  0.28807487  0.16276707  0.71548282  1.0
  P  P7576  1  0.28807487  0.30562422  0.71548282  1.0
  P  P7577  1  0.28807487  0.44848136  0.71548282  1.0
  P  P7578  1  0.28807487  0.59133850  0.71548282  1.0
  P  P7579  1  0.28807487  0.73419564  0.71548282  1.0
  P  P7580  1  0.28807487  0.87705279  0.71548282  1.0
  P  P7581  1  0.39918599  0.01990993  0.71548282  1.0
  P  P7582  1  0.39918599  0.16276707  0.71548282  1.0
  P  P7583  1  0.39918599  0.30562422  0.71548282  1.0
  P  P7584  1  0.39918599  0.44848136  0.71548282  1.0
  P  P7585  1  0.39918599  0.59133850  0.71548282  1.0
  P  P7586  1  0.39918599  0.73419564  0.71548282  1.0
  P  P7587  1  0.39918599  0.87705279  0.71548282  1.0
  P  P7588  1  0.51029710  0.01990993  0.71548282  1.0
  P  P7589  1  0.51029710  0.16276707  0.71548282  1.0
  P  P7590  1  0.51029710  0.30562422  0.71548282  1.0
  P  P7591  1  0.51029710  0.44848136  0.71548282  1.0
  P  P7592  1  0.51029710  0.59133850  0.71548282  1.0
  P  P7593  1  0.51029710  0.73419564  0.71548282  1.0
  P  P7594  1  0.51029710  0.87705279  0.71548282  1.0
  P  P7595  1  0.62140821  0.01990993  0.71548282  1.0
  P  P7596  1  0.62140821  0.16276707  0.71548282  1.0
  P  P7597  1  0.62140821  0.30562422  0.71548282  1.0
  P  P7598  1  0.62140821  0.44848136  0.71548282  1.0
  P  P7599  1  0.62140821  0.59133850  0.71548282  1.0
  P  P7600  1  0.62140821  0.73419564  0.71548282  1.0
  P  P7601  1  0.62140821  0.87705279  0.71548282  1.0
  P  P7602  1  0.73251932  0.01990993  0.71548282  1.0
  P  P7603  1  0.73251932  0.16276707  0.71548282  1.0
  P  P7604  1  0.73251932  0.30562422  0.71548282  1.0
  P  P7605  1  0.73251932  0.44848136  0.71548282  1.0
  P  P7606  1  0.73251932  0.59133850  0.71548282  1.0
  P  P7607  1  0.73251932  0.73419564  0.71548282  1.0
  P  P7608  1  0.73251932  0.87705279  0.71548282  1.0
  P  P7609  1  0.84363043  0.01990993  0.71548282  1.0
  P  P7610  1  0.84363043  0.16276707  0.71548282  1.0
  P  P7611  1  0.84363043  0.30562422  0.71548282  1.0
  P  P7612  1  0.84363043  0.44848136  0.71548282  1.0
  P  P7613  1  0.84363043  0.59133850  0.71548282  1.0
  P  P7614  1  0.84363043  0.73419564  0.71548282  1.0
  P  P7615  1  0.84363043  0.87705279  0.71548282  1.0
  P  P7616  1  0.95474154  0.01990993  0.71548282  1.0
  P  P7617  1  0.95474154  0.16276707  0.71548282  1.0
  P  P7618  1  0.95474154  0.30562422  0.71548282  1.0
  P  P7619  1  0.95474154  0.44848136  0.71548282  1.0
  P  P7620  1  0.95474154  0.59133850  0.71548282  1.0
  P  P7621  1  0.95474154  0.73419564  0.71548282  1.0
  P  P7622  1  0.95474154  0.87705279  0.71548282  1.0
  P  P7623  1  0.08701667  0.03351537  0.76310187  1.0
  P  P7624  1  0.08701667  0.17637251  0.76310187  1.0
  P  P7625  1  0.08701667  0.31922966  0.76310187  1.0
  P  P7626  1  0.08701667  0.46208680  0.76310187  1.0
  P  P7627  1  0.08701667  0.60494394  0.76310187  1.0
  P  P7628  1  0.08701667  0.74780109  0.76310187  1.0
  P  P7629  1  0.08701667  0.89065823  0.76310187  1.0
  P  P7630  1  0.19812778  0.03351537  0.76310187  1.0
  P  P7631  1  0.19812778  0.17637251  0.76310187  1.0
  P  P7632  1  0.19812778  0.31922966  0.76310187  1.0
  P  P7633  1  0.19812778  0.46208680  0.76310187  1.0
  P  P7634  1  0.19812778  0.60494394  0.76310187  1.0
  P  P7635  1  0.19812778  0.74780109  0.76310187  1.0
  P  P7636  1  0.19812778  0.89065823  0.76310187  1.0
  P  P7637  1  0.30923890  0.03351537  0.76310187  1.0
  P  P7638  1  0.30923890  0.17637251  0.76310187  1.0
  P  P7639  1  0.30923890  0.31922966  0.76310187  1.0
  P  P7640  1  0.30923890  0.46208680  0.76310187  1.0
  P  P7641  1  0.30923890  0.60494394  0.76310187  1.0
  P  P7642  1  0.30923890  0.74780109  0.76310187  1.0
  P  P7643  1  0.30923890  0.89065823  0.76310187  1.0
  P  P7644  1  0.42035001  0.03351537  0.76310187  1.0
  P  P7645  1  0.42035001  0.17637251  0.76310187  1.0
  P  P7646  1  0.42035001  0.31922966  0.76310187  1.0
  P  P7647  1  0.42035001  0.46208680  0.76310187  1.0
  P  P7648  1  0.42035001  0.60494394  0.76310187  1.0
  P  P7649  1  0.42035001  0.74780109  0.76310187  1.0
  P  P7650  1  0.42035001  0.89065823  0.76310187  1.0
  P  P7651  1  0.53146112  0.03351537  0.76310187  1.0
  P  P7652  1  0.53146112  0.17637251  0.76310187  1.0
  P  P7653  1  0.53146112  0.31922966  0.76310187  1.0
  P  P7654  1  0.53146112  0.46208680  0.76310187  1.0
  P  P7655  1  0.53146112  0.60494394  0.76310187  1.0
  P  P7656  1  0.53146112  0.74780109  0.76310187  1.0
  P  P7657  1  0.53146112  0.89065823  0.76310187  1.0
  P  P7658  1  0.64257223  0.03351537  0.76310187  1.0
  P  P7659  1  0.64257223  0.17637251  0.76310187  1.0
  P  P7660  1  0.64257223  0.31922966  0.76310187  1.0
  P  P7661  1  0.64257223  0.46208680  0.76310187  1.0
  P  P7662  1  0.64257223  0.60494394  0.76310187  1.0
  P  P7663  1  0.64257223  0.74780109  0.76310187  1.0
  P  P7664  1  0.64257223  0.89065823  0.76310187  1.0
  P  P7665  1  0.75368334  0.03351537  0.76310187  1.0
  P  P7666  1  0.75368334  0.17637251  0.76310187  1.0
  P  P7667  1  0.75368334  0.31922966  0.76310187  1.0
  P  P7668  1  0.75368334  0.46208680  0.76310187  1.0
  P  P7669  1  0.75368334  0.60494394  0.76310187  1.0
  P  P7670  1  0.75368334  0.74780109  0.76310187  1.0
  P  P7671  1  0.75368334  0.89065823  0.76310187  1.0
  P  P7672  1  0.86479445  0.03351537  0.76310187  1.0
  P  P7673  1  0.86479445  0.17637251  0.76310187  1.0
  P  P7674  1  0.86479445  0.31922966  0.76310187  1.0
  P  P7675  1  0.86479445  0.46208680  0.76310187  1.0
  P  P7676  1  0.86479445  0.60494394  0.76310187  1.0
  P  P7677  1  0.86479445  0.74780109  0.76310187  1.0
  P  P7678  1  0.86479445  0.89065823  0.76310187  1.0
  P  P7679  1  0.97590556  0.03351537  0.76310187  1.0
  P  P7680  1  0.97590556  0.17637251  0.76310187  1.0
  P  P7681  1  0.97590556  0.31922966  0.76310187  1.0
  P  P7682  1  0.97590556  0.46208680  0.76310187  1.0
  P  P7683  1  0.97590556  0.60494394  0.76310187  1.0
  P  P7684  1  0.97590556  0.74780109  0.76310187  1.0
  P  P7685  1  0.97590556  0.89065823  0.76310187  1.0
  P  P7686  1  0.04468863  0.00630449  0.66786377  1.0
  P  P7687  1  0.04468863  0.14916163  0.66786377  1.0
  P  P7688  1  0.04468863  0.29201877  0.66786377  1.0
  P  P7689  1  0.04468863  0.43487592  0.66786377  1.0
  P  P7690  1  0.04468863  0.57773306  0.66786377  1.0
  P  P7691  1  0.04468863  0.72059020  0.66786377  1.0
  P  P7692  1  0.04468863  0.86344734  0.66786377  1.0
  P  P7693  1  0.15579974  0.00630449  0.66786377  1.0
  P  P7694  1  0.15579974  0.14916163  0.66786377  1.0
  P  P7695  1  0.15579974  0.29201877  0.66786377  1.0
  P  P7696  1  0.15579974  0.43487592  0.66786377  1.0
  P  P7697  1  0.15579974  0.57773306  0.66786377  1.0
  P  P7698  1  0.15579974  0.72059020  0.66786377  1.0
  P  P7699  1  0.15579974  0.86344734  0.66786377  1.0
  P  P7700  1  0.26691085  0.00630449  0.66786377  1.0
  P  P7701  1  0.26691085  0.14916163  0.66786377  1.0
  P  P7702  1  0.26691085  0.29201877  0.66786377  1.0
  P  P7703  1  0.26691085  0.43487592  0.66786377  1.0
  P  P7704  1  0.26691085  0.57773306  0.66786377  1.0
  P  P7705  1  0.26691085  0.72059020  0.66786377  1.0
  P  P7706  1  0.26691085  0.86344734  0.66786377  1.0
  P  P7707  1  0.37802196  0.00630449  0.66786377  1.0
  P  P7708  1  0.37802196  0.14916163  0.66786377  1.0
  P  P7709  1  0.37802196  0.29201877  0.66786377  1.0
  P  P7710  1  0.37802196  0.43487592  0.66786377  1.0
  P  P7711  1  0.37802196  0.57773306  0.66786377  1.0
  P  P7712  1  0.37802196  0.72059020  0.66786377  1.0
  P  P7713  1  0.37802196  0.86344734  0.66786377  1.0
  P  P7714  1  0.48913308  0.00630449  0.66786377  1.0
  P  P7715  1  0.48913308  0.14916163  0.66786377  1.0
  P  P7716  1  0.48913308  0.29201877  0.66786377  1.0
  P  P7717  1  0.48913308  0.43487592  0.66786377  1.0
  P  P7718  1  0.48913308  0.57773306  0.66786377  1.0
  P  P7719  1  0.48913308  0.72059020  0.66786377  1.0
  P  P7720  1  0.48913308  0.86344734  0.66786377  1.0
  P  P7721  1  0.60024419  0.00630449  0.66786377  1.0
  P  P7722  1  0.60024419  0.14916163  0.66786377  1.0
  P  P7723  1  0.60024419  0.29201877  0.66786377  1.0
  P  P7724  1  0.60024419  0.43487592  0.66786377  1.0
  P  P7725  1  0.60024419  0.57773306  0.66786377  1.0
  P  P7726  1  0.60024419  0.72059020  0.66786377  1.0
  P  P7727  1  0.60024419  0.86344734  0.66786377  1.0
  P  P7728  1  0.71135530  0.00630449  0.66786377  1.0
  P  P7729  1  0.71135530  0.14916163  0.66786377  1.0
  P  P7730  1  0.71135530  0.29201877  0.66786377  1.0
  P  P7731  1  0.71135530  0.43487592  0.66786377  1.0
  P  P7732  1  0.71135530  0.57773306  0.66786377  1.0
  P  P7733  1  0.71135530  0.72059020  0.66786377  1.0
  P  P7734  1  0.71135530  0.86344734  0.66786377  1.0
  P  P7735  1  0.82246641  0.00630449  0.66786377  1.0
  P  P7736  1  0.82246641  0.14916163  0.66786377  1.0
  P  P7737  1  0.82246641  0.29201877  0.66786377  1.0
  P  P7738  1  0.82246641  0.43487592  0.66786377  1.0
  P  P7739  1  0.82246641  0.57773306  0.66786377  1.0
  P  P7740  1  0.82246641  0.72059020  0.66786377  1.0
  P  P7741  1  0.82246641  0.86344734  0.66786377  1.0
  P  P7742  1  0.93357752  0.00630449  0.66786377  1.0
  P  P7743  1  0.93357752  0.14916163  0.66786377  1.0
  P  P7744  1  0.93357752  0.29201877  0.66786377  1.0
  P  P7745  1  0.93357752  0.43487592  0.66786377  1.0
  P  P7746  1  0.93357752  0.57773306  0.66786377  1.0
  P  P7747  1  0.93357752  0.72059020  0.66786377  1.0
  P  P7748  1  0.93357752  0.86344734  0.66786377  1.0
  P  P7749  1  0.04525846  0.12294721  0.71308861  1.0
  P  P7750  1  0.04525846  0.26580436  0.71308861  1.0
  P  P7751  1  0.04525846  0.40866150  0.71308861  1.0
  P  P7752  1  0.04525846  0.55151864  0.71308861  1.0
  P  P7753  1  0.04525846  0.69437578  0.71308861  1.0
  P  P7754  1  0.04525846  0.83723293  0.71308861  1.0
  P  P7755  1  0.04525846  0.98009007  0.71308861  1.0
  P  P7756  1  0.15636957  0.12294721  0.71308861  1.0
  P  P7757  1  0.15636957  0.26580436  0.71308861  1.0
  P  P7758  1  0.15636957  0.40866150  0.71308861  1.0
  P  P7759  1  0.15636957  0.55151864  0.71308861  1.0
  P  P7760  1  0.15636957  0.69437578  0.71308861  1.0
  P  P7761  1  0.15636957  0.83723293  0.71308861  1.0
  P  P7762  1  0.15636957  0.98009007  0.71308861  1.0
  P  P7763  1  0.26748068  0.12294721  0.71308861  1.0
  P  P7764  1  0.26748068  0.26580436  0.71308861  1.0
  P  P7765  1  0.26748068  0.40866150  0.71308861  1.0
  P  P7766  1  0.26748068  0.55151864  0.71308861  1.0
  P  P7767  1  0.26748068  0.69437578  0.71308861  1.0
  P  P7768  1  0.26748068  0.83723293  0.71308861  1.0
  P  P7769  1  0.26748068  0.98009007  0.71308861  1.0
  P  P7770  1  0.37859179  0.12294721  0.71308861  1.0
  P  P7771  1  0.37859179  0.26580436  0.71308861  1.0
  P  P7772  1  0.37859179  0.40866150  0.71308861  1.0
  P  P7773  1  0.37859179  0.55151864  0.71308861  1.0
  P  P7774  1  0.37859179  0.69437578  0.71308861  1.0
  P  P7775  1  0.37859179  0.83723293  0.71308861  1.0
  P  P7776  1  0.37859179  0.98009007  0.71308861  1.0
  P  P7777  1  0.48970290  0.12294721  0.71308861  1.0
  P  P7778  1  0.48970290  0.26580436  0.71308861  1.0
  P  P7779  1  0.48970290  0.40866150  0.71308861  1.0
  P  P7780  1  0.48970290  0.55151864  0.71308861  1.0
  P  P7781  1  0.48970290  0.69437578  0.71308861  1.0
  P  P7782  1  0.48970290  0.83723293  0.71308861  1.0
  P  P7783  1  0.48970290  0.98009007  0.71308861  1.0
  P  P7784  1  0.60081401  0.12294721  0.71308861  1.0
  P  P7785  1  0.60081401  0.26580436  0.71308861  1.0
  P  P7786  1  0.60081401  0.40866150  0.71308861  1.0
  P  P7787  1  0.60081401  0.55151864  0.71308861  1.0
  P  P7788  1  0.60081401  0.69437578  0.71308861  1.0
  P  P7789  1  0.60081401  0.83723293  0.71308861  1.0
  P  P7790  1  0.60081401  0.98009007  0.71308861  1.0
  P  P7791  1  0.71192513  0.12294721  0.71308861  1.0
  P  P7792  1  0.71192513  0.26580436  0.71308861  1.0
  P  P7793  1  0.71192513  0.40866150  0.71308861  1.0
  P  P7794  1  0.71192513  0.55151864  0.71308861  1.0
  P  P7795  1  0.71192513  0.69437578  0.71308861  1.0
  P  P7796  1  0.71192513  0.83723293  0.71308861  1.0
  P  P7797  1  0.71192513  0.98009007  0.71308861  1.0
  P  P7798  1  0.82303624  0.12294721  0.71308861  1.0
  P  P7799  1  0.82303624  0.26580436  0.71308861  1.0
  P  P7800  1  0.82303624  0.40866150  0.71308861  1.0
  P  P7801  1  0.82303624  0.55151864  0.71308861  1.0
  P  P7802  1  0.82303624  0.69437578  0.71308861  1.0
  P  P7803  1  0.82303624  0.83723293  0.71308861  1.0
  P  P7804  1  0.82303624  0.98009007  0.71308861  1.0
  P  P7805  1  0.93414735  0.12294721  0.71308861  1.0
  P  P7806  1  0.93414735  0.26580436  0.71308861  1.0
  P  P7807  1  0.93414735  0.40866150  0.71308861  1.0
  P  P7808  1  0.93414735  0.55151864  0.71308861  1.0
  P  P7809  1  0.93414735  0.69437578  0.71308861  1.0
  P  P7810  1  0.93414735  0.83723293  0.71308861  1.0
  P  P7811  1  0.93414735  0.98009007  0.71308861  1.0
  P  P7812  1  0.06642248  0.13655266  0.76070765  1.0
  P  P7813  1  0.06642248  0.27940980  0.76070765  1.0
  P  P7814  1  0.06642248  0.42226694  0.76070765  1.0
  P  P7815  1  0.06642248  0.56512408  0.76070765  1.0
  P  P7816  1  0.06642248  0.70798123  0.76070765  1.0
  P  P7817  1  0.06642248  0.85083837  0.76070765  1.0
  P  P7818  1  0.06642248  0.99369551  0.76070765  1.0
  P  P7819  1  0.17753359  0.13655266  0.76070765  1.0
  P  P7820  1  0.17753359  0.27940980  0.76070765  1.0
  P  P7821  1  0.17753359  0.42226694  0.76070765  1.0
  P  P7822  1  0.17753359  0.56512408  0.76070765  1.0
  P  P7823  1  0.17753359  0.70798123  0.76070765  1.0
  P  P7824  1  0.17753359  0.85083837  0.76070765  1.0
  P  P7825  1  0.17753359  0.99369551  0.76070765  1.0
  P  P7826  1  0.28864470  0.13655266  0.76070765  1.0
  P  P7827  1  0.28864470  0.27940980  0.76070765  1.0
  P  P7828  1  0.28864470  0.42226694  0.76070765  1.0
  P  P7829  1  0.28864470  0.56512408  0.76070765  1.0
  P  P7830  1  0.28864470  0.70798123  0.76070765  1.0
  P  P7831  1  0.28864470  0.85083837  0.76070765  1.0
  P  P7832  1  0.28864470  0.99369551  0.76070765  1.0
  P  P7833  1  0.39975581  0.13655266  0.76070765  1.0
  P  P7834  1  0.39975581  0.27940980  0.76070765  1.0
  P  P7835  1  0.39975581  0.42226694  0.76070765  1.0
  P  P7836  1  0.39975581  0.56512408  0.76070765  1.0
  P  P7837  1  0.39975581  0.70798123  0.76070765  1.0
  P  P7838  1  0.39975581  0.85083837  0.76070765  1.0
  P  P7839  1  0.39975581  0.99369551  0.76070765  1.0
  P  P7840  1  0.51086692  0.13655266  0.76070765  1.0
  P  P7841  1  0.51086692  0.27940980  0.76070765  1.0
  P  P7842  1  0.51086692  0.42226694  0.76070765  1.0
  P  P7843  1  0.51086692  0.56512408  0.76070765  1.0
  P  P7844  1  0.51086692  0.70798123  0.76070765  1.0
  P  P7845  1  0.51086692  0.85083837  0.76070765  1.0
  P  P7846  1  0.51086692  0.99369551  0.76070765  1.0
  P  P7847  1  0.62197804  0.13655266  0.76070765  1.0
  P  P7848  1  0.62197804  0.27940980  0.76070765  1.0
  P  P7849  1  0.62197804  0.42226694  0.76070765  1.0
  P  P7850  1  0.62197804  0.56512408  0.76070765  1.0
  P  P7851  1  0.62197804  0.70798123  0.76070765  1.0
  P  P7852  1  0.62197804  0.85083837  0.76070765  1.0
  P  P7853  1  0.62197804  0.99369551  0.76070765  1.0
  P  P7854  1  0.73308915  0.13655266  0.76070765  1.0
  P  P7855  1  0.73308915  0.27940980  0.76070765  1.0
  P  P7856  1  0.73308915  0.42226694  0.76070765  1.0
  P  P7857  1  0.73308915  0.56512408  0.76070765  1.0
  P  P7858  1  0.73308915  0.70798123  0.76070765  1.0
  P  P7859  1  0.73308915  0.85083837  0.76070765  1.0
  P  P7860  1  0.73308915  0.99369551  0.76070765  1.0
  P  P7861  1  0.84420026  0.13655266  0.76070765  1.0
  P  P7862  1  0.84420026  0.27940980  0.76070765  1.0
  P  P7863  1  0.84420026  0.42226694  0.76070765  1.0
  P  P7864  1  0.84420026  0.56512408  0.76070765  1.0
  P  P7865  1  0.84420026  0.70798123  0.76070765  1.0
  P  P7866  1  0.84420026  0.85083837  0.76070765  1.0
  P  P7867  1  0.84420026  0.99369551  0.76070765  1.0
  P  P7868  1  0.95531137  0.13655266  0.76070765  1.0
  P  P7869  1  0.95531137  0.27940980  0.76070765  1.0
  P  P7870  1  0.95531137  0.42226694  0.76070765  1.0
  P  P7871  1  0.95531137  0.56512408  0.76070765  1.0
  P  P7872  1  0.95531137  0.70798123  0.76070765  1.0
  P  P7873  1  0.95531137  0.85083837  0.76070765  1.0
  P  P7874  1  0.95531137  0.99369551  0.76070765  1.0
  P  P7875  1  0.02409444  0.10934177  0.66546956  1.0
  P  P7876  1  0.02409444  0.25219891  0.66546956  1.0
  P  P7877  1  0.02409444  0.39505606  0.66546956  1.0
  P  P7878  1  0.02409444  0.53791320  0.66546956  1.0
  P  P7879  1  0.02409444  0.68077034  0.66546956  1.0
  P  P7880  1  0.02409444  0.82362749  0.66546956  1.0
  P  P7881  1  0.02409444  0.96648463  0.66546956  1.0
  P  P7882  1  0.13520555  0.10934177  0.66546956  1.0
  P  P7883  1  0.13520555  0.25219891  0.66546956  1.0
  P  P7884  1  0.13520555  0.39505606  0.66546956  1.0
  P  P7885  1  0.13520555  0.53791320  0.66546956  1.0
  P  P7886  1  0.13520555  0.68077034  0.66546956  1.0
  P  P7887  1  0.13520555  0.82362749  0.66546956  1.0
  P  P7888  1  0.13520555  0.96648463  0.66546956  1.0
  P  P7889  1  0.24631666  0.10934177  0.66546956  1.0
  P  P7890  1  0.24631666  0.25219891  0.66546956  1.0
  P  P7891  1  0.24631666  0.39505606  0.66546956  1.0
  P  P7892  1  0.24631666  0.53791320  0.66546956  1.0
  P  P7893  1  0.24631666  0.68077034  0.66546956  1.0
  P  P7894  1  0.24631666  0.82362749  0.66546956  1.0
  P  P7895  1  0.24631666  0.96648463  0.66546956  1.0
  P  P7896  1  0.35742777  0.10934177  0.66546956  1.0
  P  P7897  1  0.35742777  0.25219891  0.66546956  1.0
  P  P7898  1  0.35742777  0.39505606  0.66546956  1.0
  P  P7899  1  0.35742777  0.53791320  0.66546956  1.0
  P  P7900  1  0.35742777  0.68077034  0.66546956  1.0
  P  P7901  1  0.35742777  0.82362749  0.66546956  1.0
  P  P7902  1  0.35742777  0.96648463  0.66546956  1.0
  P  P7903  1  0.46853888  0.10934177  0.66546956  1.0
  P  P7904  1  0.46853888  0.25219891  0.66546956  1.0
  P  P7905  1  0.46853888  0.39505606  0.66546956  1.0
  P  P7906  1  0.46853888  0.53791320  0.66546956  1.0
  P  P7907  1  0.46853888  0.68077034  0.66546956  1.0
  P  P7908  1  0.46853888  0.82362749  0.66546956  1.0
  P  P7909  1  0.46853888  0.96648463  0.66546956  1.0
  P  P7910  1  0.57964999  0.10934177  0.66546956  1.0
  P  P7911  1  0.57964999  0.25219891  0.66546956  1.0
  P  P7912  1  0.57964999  0.39505606  0.66546956  1.0
  P  P7913  1  0.57964999  0.53791320  0.66546956  1.0
  P  P7914  1  0.57964999  0.68077034  0.66546956  1.0
  P  P7915  1  0.57964999  0.82362749  0.66546956  1.0
  P  P7916  1  0.57964999  0.96648463  0.66546956  1.0
  P  P7917  1  0.69076110  0.10934177  0.66546956  1.0
  P  P7918  1  0.69076110  0.25219891  0.66546956  1.0
  P  P7919  1  0.69076110  0.39505606  0.66546956  1.0
  P  P7920  1  0.69076110  0.53791320  0.66546956  1.0
  P  P7921  1  0.69076110  0.68077034  0.66546956  1.0
  P  P7922  1  0.69076110  0.82362749  0.66546956  1.0
  P  P7923  1  0.69076110  0.96648463  0.66546956  1.0
  P  P7924  1  0.80187222  0.10934177  0.66546956  1.0
  P  P7925  1  0.80187222  0.25219891  0.66546956  1.0
  P  P7926  1  0.80187222  0.39505606  0.66546956  1.0
  P  P7927  1  0.80187222  0.53791320  0.66546956  1.0
  P  P7928  1  0.80187222  0.68077034  0.66546956  1.0
  P  P7929  1  0.80187222  0.82362749  0.66546956  1.0
  P  P7930  1  0.80187222  0.96648463  0.66546956  1.0
  P  P7931  1  0.91298333  0.10934177  0.66546956  1.0
  P  P7932  1  0.91298333  0.25219891  0.66546956  1.0
  P  P7933  1  0.91298333  0.39505606  0.66546956  1.0
  P  P7934  1  0.91298333  0.53791320  0.66546956  1.0
  P  P7935  1  0.91298333  0.68077034  0.66546956  1.0
  P  P7936  1  0.91298333  0.82362749  0.66546956  1.0
  P  P7937  1  0.91298333  0.96648463  0.66546956  1.0
  P  P7938  1  0.01609499  0.05592992  0.72852809  1.0
  P  P7939  1  0.01609499  0.19878707  0.72852809  1.0
  P  P7940  1  0.01609499  0.34164421  0.72852809  1.0
  P  P7941  1  0.01609499  0.48450135  0.72852809  1.0
  P  P7942  1  0.01609499  0.62735849  0.72852809  1.0
  P  P7943  1  0.01609499  0.77021564  0.72852809  1.0
  P  P7944  1  0.01609499  0.91307278  0.72852809  1.0
  P  P7945  1  0.12720610  0.05592992  0.72852809  1.0
  P  P7946  1  0.12720610  0.19878707  0.72852809  1.0
  P  P7947  1  0.12720610  0.34164421  0.72852809  1.0
  P  P7948  1  0.12720610  0.48450135  0.72852809  1.0
  P  P7949  1  0.12720610  0.62735849  0.72852809  1.0
  P  P7950  1  0.12720610  0.77021564  0.72852809  1.0
  P  P7951  1  0.12720610  0.91307278  0.72852809  1.0
  P  P7952  1  0.23831722  0.05592992  0.72852809  1.0
  P  P7953  1  0.23831722  0.19878707  0.72852809  1.0
  P  P7954  1  0.23831722  0.34164421  0.72852809  1.0
  P  P7955  1  0.23831722  0.48450135  0.72852809  1.0
  P  P7956  1  0.23831722  0.62735849  0.72852809  1.0
  P  P7957  1  0.23831722  0.77021564  0.72852809  1.0
  P  P7958  1  0.23831722  0.91307278  0.72852809  1.0
  P  P7959  1  0.34942833  0.05592992  0.72852809  1.0
  P  P7960  1  0.34942833  0.19878707  0.72852809  1.0
  P  P7961  1  0.34942833  0.34164421  0.72852809  1.0
  P  P7962  1  0.34942833  0.48450135  0.72852809  1.0
  P  P7963  1  0.34942833  0.62735849  0.72852809  1.0
  P  P7964  1  0.34942833  0.77021564  0.72852809  1.0
  P  P7965  1  0.34942833  0.91307278  0.72852809  1.0
  P  P7966  1  0.46053944  0.05592992  0.72852809  1.0
  P  P7967  1  0.46053944  0.19878707  0.72852809  1.0
  P  P7968  1  0.46053944  0.34164421  0.72852809  1.0
  P  P7969  1  0.46053944  0.48450135  0.72852809  1.0
  P  P7970  1  0.46053944  0.62735849  0.72852809  1.0
  P  P7971  1  0.46053944  0.77021564  0.72852809  1.0
  P  P7972  1  0.46053944  0.91307278  0.72852809  1.0
  P  P7973  1  0.57165055  0.05592992  0.72852809  1.0
  P  P7974  1  0.57165055  0.19878707  0.72852809  1.0
  P  P7975  1  0.57165055  0.34164421  0.72852809  1.0
  P  P7976  1  0.57165055  0.48450135  0.72852809  1.0
  P  P7977  1  0.57165055  0.62735849  0.72852809  1.0
  P  P7978  1  0.57165055  0.77021564  0.72852809  1.0
  P  P7979  1  0.57165055  0.91307278  0.72852809  1.0
  P  P7980  1  0.68276166  0.05592992  0.72852809  1.0
  P  P7981  1  0.68276166  0.19878707  0.72852809  1.0
  P  P7982  1  0.68276166  0.34164421  0.72852809  1.0
  P  P7983  1  0.68276166  0.48450135  0.72852809  1.0
  P  P7984  1  0.68276166  0.62735849  0.72852809  1.0
  P  P7985  1  0.68276166  0.77021564  0.72852809  1.0
  P  P7986  1  0.68276166  0.91307278  0.72852809  1.0
  P  P7987  1  0.79387277  0.05592992  0.72852809  1.0
  P  P7988  1  0.79387277  0.19878707  0.72852809  1.0
  P  P7989  1  0.79387277  0.34164421  0.72852809  1.0
  P  P7990  1  0.79387277  0.48450135  0.72852809  1.0
  P  P7991  1  0.79387277  0.62735849  0.72852809  1.0
  P  P7992  1  0.79387277  0.77021564  0.72852809  1.0
  P  P7993  1  0.79387277  0.91307278  0.72852809  1.0
  P  P7994  1  0.90498388  0.05592992  0.72852809  1.0
  P  P7995  1  0.90498388  0.19878707  0.72852809  1.0
  P  P7996  1  0.90498388  0.34164421  0.72852809  1.0
  P  P7997  1  0.90498388  0.48450135  0.72852809  1.0
  P  P7998  1  0.90498388  0.62735849  0.72852809  1.0
  P  P7999  1  0.90498388  0.77021564  0.72852809  1.0
  P  P8000  1  0.90498388  0.91307278  0.72852809  1.0
  P  P8001  1  0.03725901  0.06953536  0.77614714  1.0
  P  P8002  1  0.03725901  0.21239251  0.77614714  1.0
  P  P8003  1  0.03725901  0.35524965  0.77614714  1.0
  P  P8004  1  0.03725901  0.49810679  0.77614714  1.0
  P  P8005  1  0.03725901  0.64096394  0.77614714  1.0
  P  P8006  1  0.03725901  0.78382108  0.77614714  1.0
  P  P8007  1  0.03725901  0.92667822  0.77614714  1.0
  P  P8008  1  0.14837013  0.06953536  0.77614714  1.0
  P  P8009  1  0.14837013  0.21239251  0.77614714  1.0
  P  P8010  1  0.14837013  0.35524965  0.77614714  1.0
  P  P8011  1  0.14837013  0.49810679  0.77614714  1.0
  P  P8012  1  0.14837013  0.64096394  0.77614714  1.0
  P  P8013  1  0.14837013  0.78382108  0.77614714  1.0
  P  P8014  1  0.14837013  0.92667822  0.77614714  1.0
  P  P8015  1  0.25948124  0.06953536  0.77614714  1.0
  P  P8016  1  0.25948124  0.21239251  0.77614714  1.0
  P  P8017  1  0.25948124  0.35524965  0.77614714  1.0
  P  P8018  1  0.25948124  0.49810679  0.77614714  1.0
  P  P8019  1  0.25948124  0.64096394  0.77614714  1.0
  P  P8020  1  0.25948124  0.78382108  0.77614714  1.0
  P  P8021  1  0.25948124  0.92667822  0.77614714  1.0
  P  P8022  1  0.37059235  0.06953536  0.77614714  1.0
  P  P8023  1  0.37059235  0.21239251  0.77614714  1.0
  P  P8024  1  0.37059235  0.35524965  0.77614714  1.0
  P  P8025  1  0.37059235  0.49810679  0.77614714  1.0
  P  P8026  1  0.37059235  0.64096394  0.77614714  1.0
  P  P8027  1  0.37059235  0.78382108  0.77614714  1.0
  P  P8028  1  0.37059235  0.92667822  0.77614714  1.0
  P  P8029  1  0.48170346  0.06953536  0.77614714  1.0
  P  P8030  1  0.48170346  0.21239251  0.77614714  1.0
  P  P8031  1  0.48170346  0.35524965  0.77614714  1.0
  P  P8032  1  0.48170346  0.49810679  0.77614714  1.0
  P  P8033  1  0.48170346  0.64096394  0.77614714  1.0
  P  P8034  1  0.48170346  0.78382108  0.77614714  1.0
  P  P8035  1  0.48170346  0.92667822  0.77614714  1.0
  P  P8036  1  0.59281457  0.06953536  0.77614714  1.0
  P  P8037  1  0.59281457  0.21239251  0.77614714  1.0
  P  P8038  1  0.59281457  0.35524965  0.77614714  1.0
  P  P8039  1  0.59281457  0.49810679  0.77614714  1.0
  P  P8040  1  0.59281457  0.64096394  0.77614714  1.0
  P  P8041  1  0.59281457  0.78382108  0.77614714  1.0
  P  P8042  1  0.59281457  0.92667822  0.77614714  1.0
  P  P8043  1  0.70392568  0.06953536  0.77614714  1.0
  P  P8044  1  0.70392568  0.21239251  0.77614714  1.0
  P  P8045  1  0.70392568  0.35524965  0.77614714  1.0
  P  P8046  1  0.70392568  0.49810679  0.77614714  1.0
  P  P8047  1  0.70392568  0.64096394  0.77614714  1.0
  P  P8048  1  0.70392568  0.78382108  0.77614714  1.0
  P  P8049  1  0.70392568  0.92667822  0.77614714  1.0
  P  P8050  1  0.81503679  0.06953536  0.77614714  1.0
  P  P8051  1  0.81503679  0.21239251  0.77614714  1.0
  P  P8052  1  0.81503679  0.35524965  0.77614714  1.0
  P  P8053  1  0.81503679  0.49810679  0.77614714  1.0
  P  P8054  1  0.81503679  0.64096394  0.77614714  1.0
  P  P8055  1  0.81503679  0.78382108  0.77614714  1.0
  P  P8056  1  0.81503679  0.92667822  0.77614714  1.0
  P  P8057  1  0.92614790  0.06953536  0.77614714  1.0
  P  P8058  1  0.92614790  0.21239251  0.77614714  1.0
  P  P8059  1  0.92614790  0.35524965  0.77614714  1.0
  P  P8060  1  0.92614790  0.49810679  0.77614714  1.0
  P  P8061  1  0.92614790  0.64096394  0.77614714  1.0
  P  P8062  1  0.92614790  0.78382108  0.77614714  1.0
  P  P8063  1  0.92614790  0.92667822  0.77614714  1.0
  P  P8064  1  0.10604208  0.04232448  0.68090904  1.0
  P  P8065  1  0.10604208  0.18518162  0.68090904  1.0
  P  P8066  1  0.10604208  0.32803877  0.68090904  1.0
  P  P8067  1  0.10604208  0.47089591  0.68090904  1.0
  P  P8068  1  0.10604208  0.61375305  0.68090904  1.0
  P  P8069  1  0.10604208  0.75661019  0.68090904  1.0
  P  P8070  1  0.10604208  0.89946734  0.68090904  1.0
  P  P8071  1  0.21715319  0.04232448  0.68090904  1.0
  P  P8072  1  0.21715319  0.18518162  0.68090904  1.0
  P  P8073  1  0.21715319  0.32803877  0.68090904  1.0
  P  P8074  1  0.21715319  0.47089591  0.68090904  1.0
  P  P8075  1  0.21715319  0.61375305  0.68090904  1.0
  P  P8076  1  0.21715319  0.75661019  0.68090904  1.0
  P  P8077  1  0.21715319  0.89946734  0.68090904  1.0
  P  P8078  1  0.32826430  0.04232448  0.68090904  1.0
  P  P8079  1  0.32826430  0.18518162  0.68090904  1.0
  P  P8080  1  0.32826430  0.32803877  0.68090904  1.0
  P  P8081  1  0.32826430  0.47089591  0.68090904  1.0
  P  P8082  1  0.32826430  0.61375305  0.68090904  1.0
  P  P8083  1  0.32826430  0.75661019  0.68090904  1.0
  P  P8084  1  0.32826430  0.89946734  0.68090904  1.0
  P  P8085  1  0.43937542  0.04232448  0.68090904  1.0
  P  P8086  1  0.43937542  0.18518162  0.68090904  1.0
  P  P8087  1  0.43937542  0.32803877  0.68090904  1.0
  P  P8088  1  0.43937542  0.47089591  0.68090904  1.0
  P  P8089  1  0.43937542  0.61375305  0.68090904  1.0
  P  P8090  1  0.43937542  0.75661019  0.68090904  1.0
  P  P8091  1  0.43937542  0.89946734  0.68090904  1.0
  P  P8092  1  0.55048653  0.04232448  0.68090904  1.0
  P  P8093  1  0.55048653  0.18518162  0.68090904  1.0
  P  P8094  1  0.55048653  0.32803877  0.68090904  1.0
  P  P8095  1  0.55048653  0.47089591  0.68090904  1.0
  P  P8096  1  0.55048653  0.61375305  0.68090904  1.0
  P  P8097  1  0.55048653  0.75661019  0.68090904  1.0
  P  P8098  1  0.55048653  0.89946734  0.68090904  1.0
  P  P8099  1  0.66159764  0.04232448  0.68090904  1.0
  P  P8100  1  0.66159764  0.18518162  0.68090904  1.0
  P  P8101  1  0.66159764  0.32803877  0.68090904  1.0
  P  P8102  1  0.66159764  0.47089591  0.68090904  1.0
  P  P8103  1  0.66159764  0.61375305  0.68090904  1.0
  P  P8104  1  0.66159764  0.75661019  0.68090904  1.0
  P  P8105  1  0.66159764  0.89946734  0.68090904  1.0
  P  P8106  1  0.77270875  0.04232448  0.68090904  1.0
  P  P8107  1  0.77270875  0.18518162  0.68090904  1.0
  P  P8108  1  0.77270875  0.32803877  0.68090904  1.0
  P  P8109  1  0.77270875  0.47089591  0.68090904  1.0
  P  P8110  1  0.77270875  0.61375305  0.68090904  1.0
  P  P8111  1  0.77270875  0.75661019  0.68090904  1.0
  P  P8112  1  0.77270875  0.89946734  0.68090904  1.0
  P  P8113  1  0.88381986  0.04232448  0.68090904  1.0
  P  P8114  1  0.88381986  0.18518162  0.68090904  1.0
  P  P8115  1  0.88381986  0.32803877  0.68090904  1.0
  P  P8116  1  0.88381986  0.47089591  0.68090904  1.0
  P  P8117  1  0.88381986  0.61375305  0.68090904  1.0
  P  P8118  1  0.88381986  0.75661019  0.68090904  1.0
  P  P8119  1  0.88381986  0.89946734  0.68090904  1.0
  P  P8120  1  0.99493097  0.04232448  0.68090904  1.0
  P  P8121  1  0.99493097  0.18518162  0.68090904  1.0
  P  P8122  1  0.99493097  0.32803877  0.68090904  1.0
  P  P8123  1  0.99493097  0.47089591  0.68090904  1.0
  P  P8124  1  0.99493097  0.61375305  0.68090904  1.0
  P  P8125  1  0.99493097  0.75661019  0.68090904  1.0
  P  P8126  1  0.99493097  0.89946734  0.68090904  1.0
  P  P8127  1  0.09501612  0.08692722  0.70004334  1.0
  P  P8128  1  0.09501612  0.22978436  0.70004334  1.0
  P  P8129  1  0.09501612  0.37264151  0.70004334  1.0
  P  P8130  1  0.09501612  0.51549865  0.70004334  1.0
  P  P8131  1  0.09501612  0.65835579  0.70004334  1.0
  P  P8132  1  0.09501612  0.80121293  0.70004334  1.0
  P  P8133  1  0.09501612  0.94407008  0.70004334  1.0
  P  P8134  1  0.20612723  0.08692722  0.70004334  1.0
  P  P8135  1  0.20612723  0.22978436  0.70004334  1.0
  P  P8136  1  0.20612723  0.37264151  0.70004334  1.0
  P  P8137  1  0.20612723  0.51549865  0.70004334  1.0
  P  P8138  1  0.20612723  0.65835579  0.70004334  1.0
  P  P8139  1  0.20612723  0.80121293  0.70004334  1.0
  P  P8140  1  0.20612723  0.94407008  0.70004334  1.0
  P  P8141  1  0.31723834  0.08692722  0.70004334  1.0
  P  P8142  1  0.31723834  0.22978436  0.70004334  1.0
  P  P8143  1  0.31723834  0.37264151  0.70004334  1.0
  P  P8144  1  0.31723834  0.51549865  0.70004334  1.0
  P  P8145  1  0.31723834  0.65835579  0.70004334  1.0
  P  P8146  1  0.31723834  0.80121293  0.70004334  1.0
  P  P8147  1  0.31723834  0.94407008  0.70004334  1.0
  P  P8148  1  0.42834945  0.08692722  0.70004334  1.0
  P  P8149  1  0.42834945  0.22978436  0.70004334  1.0
  P  P8150  1  0.42834945  0.37264151  0.70004334  1.0
  P  P8151  1  0.42834945  0.51549865  0.70004334  1.0
  P  P8152  1  0.42834945  0.65835579  0.70004334  1.0
  P  P8153  1  0.42834945  0.80121293  0.70004334  1.0
  P  P8154  1  0.42834945  0.94407008  0.70004334  1.0
  P  P8155  1  0.53946056  0.08692722  0.70004334  1.0
  P  P8156  1  0.53946056  0.22978436  0.70004334  1.0
  P  P8157  1  0.53946056  0.37264151  0.70004334  1.0
  P  P8158  1  0.53946056  0.51549865  0.70004334  1.0
  P  P8159  1  0.53946056  0.65835579  0.70004334  1.0
  P  P8160  1  0.53946056  0.80121293  0.70004334  1.0
  P  P8161  1  0.53946056  0.94407008  0.70004334  1.0
  P  P8162  1  0.65057167  0.08692722  0.70004334  1.0
  P  P8163  1  0.65057167  0.22978436  0.70004334  1.0
  P  P8164  1  0.65057167  0.37264151  0.70004334  1.0
  P  P8165  1  0.65057167  0.51549865  0.70004334  1.0
  P  P8166  1  0.65057167  0.65835579  0.70004334  1.0
  P  P8167  1  0.65057167  0.80121293  0.70004334  1.0
  P  P8168  1  0.65057167  0.94407008  0.70004334  1.0
  P  P8169  1  0.76168278  0.08692722  0.70004334  1.0
  P  P8170  1  0.76168278  0.22978436  0.70004334  1.0
  P  P8171  1  0.76168278  0.37264151  0.70004334  1.0
  P  P8172  1  0.76168278  0.51549865  0.70004334  1.0
  P  P8173  1  0.76168278  0.65835579  0.70004334  1.0
  P  P8174  1  0.76168278  0.80121293  0.70004334  1.0
  P  P8175  1  0.76168278  0.94407008  0.70004334  1.0
  P  P8176  1  0.87279390  0.08692722  0.70004334  1.0
  P  P8177  1  0.87279390  0.22978436  0.70004334  1.0
  P  P8178  1  0.87279390  0.37264151  0.70004334  1.0
  P  P8179  1  0.87279390  0.51549865  0.70004334  1.0
  P  P8180  1  0.87279390  0.65835579  0.70004334  1.0
  P  P8181  1  0.87279390  0.80121293  0.70004334  1.0
  P  P8182  1  0.87279390  0.94407008  0.70004334  1.0
  P  P8183  1  0.98390501  0.08692722  0.70004334  1.0
  P  P8184  1  0.98390501  0.22978436  0.70004334  1.0
  P  P8185  1  0.98390501  0.37264151  0.70004334  1.0
  P  P8186  1  0.98390501  0.51549865  0.70004334  1.0
  P  P8187  1  0.98390501  0.65835579  0.70004334  1.0
  P  P8188  1  0.98390501  0.80121293  0.70004334  1.0
  P  P8189  1  0.98390501  0.94407008  0.70004334  1.0
  P  P8190  1  0.00506903  0.10053266  0.74766239  1.0
  P  P8191  1  0.00506903  0.24338981  0.74766239  1.0
  P  P8192  1  0.00506903  0.38624695  0.74766239  1.0
  P  P8193  1  0.00506903  0.52910409  0.74766239  1.0
  P  P8194  1  0.00506903  0.67196123  0.74766239  1.0
  P  P8195  1  0.00506903  0.81481838  0.74766239  1.0
  P  P8196  1  0.00506903  0.95767552  0.74766239  1.0
  P  P8197  1  0.11618014  0.10053266  0.74766239  1.0
  P  P8198  1  0.11618014  0.24338981  0.74766239  1.0
  P  P8199  1  0.11618014  0.38624695  0.74766239  1.0
  P  P8200  1  0.11618014  0.52910409  0.74766239  1.0
  P  P8201  1  0.11618014  0.67196123  0.74766239  1.0
  P  P8202  1  0.11618014  0.81481838  0.74766239  1.0
  P  P8203  1  0.11618014  0.95767552  0.74766239  1.0
  P  P8204  1  0.22729125  0.10053266  0.74766239  1.0
  P  P8205  1  0.22729125  0.24338981  0.74766239  1.0
  P  P8206  1  0.22729125  0.38624695  0.74766239  1.0
  P  P8207  1  0.22729125  0.52910409  0.74766239  1.0
  P  P8208  1  0.22729125  0.67196123  0.74766239  1.0
  P  P8209  1  0.22729125  0.81481838  0.74766239  1.0
  P  P8210  1  0.22729125  0.95767552  0.74766239  1.0
  P  P8211  1  0.33840236  0.10053266  0.74766239  1.0
  P  P8212  1  0.33840236  0.24338981  0.74766239  1.0
  P  P8213  1  0.33840236  0.38624695  0.74766239  1.0
  P  P8214  1  0.33840236  0.52910409  0.74766239  1.0
  P  P8215  1  0.33840236  0.67196123  0.74766239  1.0
  P  P8216  1  0.33840236  0.81481838  0.74766239  1.0
  P  P8217  1  0.33840236  0.95767552  0.74766239  1.0
  P  P8218  1  0.44951347  0.10053266  0.74766239  1.0
  P  P8219  1  0.44951347  0.24338981  0.74766239  1.0
  P  P8220  1  0.44951347  0.38624695  0.74766239  1.0
  P  P8221  1  0.44951347  0.52910409  0.74766239  1.0
  P  P8222  1  0.44951347  0.67196123  0.74766239  1.0
  P  P8223  1  0.44951347  0.81481838  0.74766239  1.0
  P  P8224  1  0.44951347  0.95767552  0.74766239  1.0
  P  P8225  1  0.56062458  0.10053266  0.74766239  1.0
  P  P8226  1  0.56062458  0.24338981  0.74766239  1.0
  P  P8227  1  0.56062458  0.38624695  0.74766239  1.0
  P  P8228  1  0.56062458  0.52910409  0.74766239  1.0
  P  P8229  1  0.56062458  0.67196123  0.74766239  1.0
  P  P8230  1  0.56062458  0.81481838  0.74766239  1.0
  P  P8231  1  0.56062458  0.95767552  0.74766239  1.0
  P  P8232  1  0.67173570  0.10053266  0.74766239  1.0
  P  P8233  1  0.67173570  0.24338981  0.74766239  1.0
  P  P8234  1  0.67173570  0.38624695  0.74766239  1.0
  P  P8235  1  0.67173570  0.52910409  0.74766239  1.0
  P  P8236  1  0.67173570  0.67196123  0.74766239  1.0
  P  P8237  1  0.67173570  0.81481838  0.74766239  1.0
  P  P8238  1  0.67173570  0.95767552  0.74766239  1.0
  P  P8239  1  0.78284681  0.10053266  0.74766239  1.0
  P  P8240  1  0.78284681  0.24338981  0.74766239  1.0
  P  P8241  1  0.78284681  0.38624695  0.74766239  1.0
  P  P8242  1  0.78284681  0.52910409  0.74766239  1.0
  P  P8243  1  0.78284681  0.67196123  0.74766239  1.0
  P  P8244  1  0.78284681  0.81481838  0.74766239  1.0
  P  P8245  1  0.78284681  0.95767552  0.74766239  1.0
  P  P8246  1  0.89395792  0.10053266  0.74766239  1.0
  P  P8247  1  0.89395792  0.24338981  0.74766239  1.0
  P  P8248  1  0.89395792  0.38624695  0.74766239  1.0
  P  P8249  1  0.89395792  0.52910409  0.74766239  1.0
  P  P8250  1  0.89395792  0.67196123  0.74766239  1.0
  P  P8251  1  0.89395792  0.81481838  0.74766239  1.0
  P  P8252  1  0.89395792  0.95767552  0.74766239  1.0
  P  P8253  1  0.07385210  0.07332178  0.65242429  1.0
  P  P8254  1  0.07385210  0.21617892  0.65242429  1.0
  P  P8255  1  0.07385210  0.35903606  0.65242429  1.0
  P  P8256  1  0.07385210  0.50189321  0.65242429  1.0
  P  P8257  1  0.07385210  0.64475035  0.65242429  1.0
  P  P8258  1  0.07385210  0.78760749  0.65242429  1.0
  P  P8259  1  0.07385210  0.93046464  0.65242429  1.0
  P  P8260  1  0.18496321  0.07332178  0.65242429  1.0
  P  P8261  1  0.18496321  0.21617892  0.65242429  1.0
  P  P8262  1  0.18496321  0.35903606  0.65242429  1.0
  P  P8263  1  0.18496321  0.50189321  0.65242429  1.0
  P  P8264  1  0.18496321  0.64475035  0.65242429  1.0
  P  P8265  1  0.18496321  0.78760749  0.65242429  1.0
  P  P8266  1  0.18496321  0.93046464  0.65242429  1.0
  P  P8267  1  0.29607432  0.07332178  0.65242429  1.0
  P  P8268  1  0.29607432  0.21617892  0.65242429  1.0
  P  P8269  1  0.29607432  0.35903606  0.65242429  1.0
  P  P8270  1  0.29607432  0.50189321  0.65242429  1.0
  P  P8271  1  0.29607432  0.64475035  0.65242429  1.0
  P  P8272  1  0.29607432  0.78760749  0.65242429  1.0
  P  P8273  1  0.29607432  0.93046464  0.65242429  1.0
  P  P8274  1  0.40718543  0.07332178  0.65242429  1.0
  P  P8275  1  0.40718543  0.21617892  0.65242429  1.0
  P  P8276  1  0.40718543  0.35903606  0.65242429  1.0
  P  P8277  1  0.40718543  0.50189321  0.65242429  1.0
  P  P8278  1  0.40718543  0.64475035  0.65242429  1.0
  P  P8279  1  0.40718543  0.78760749  0.65242429  1.0
  P  P8280  1  0.40718543  0.93046464  0.65242429  1.0
  P  P8281  1  0.51829654  0.07332178  0.65242429  1.0
  P  P8282  1  0.51829654  0.21617892  0.65242429  1.0
  P  P8283  1  0.51829654  0.35903606  0.65242429  1.0
  P  P8284  1  0.51829654  0.50189321  0.65242429  1.0
  P  P8285  1  0.51829654  0.64475035  0.65242429  1.0
  P  P8286  1  0.51829654  0.78760749  0.65242429  1.0
  P  P8287  1  0.51829654  0.93046464  0.65242429  1.0
  P  P8288  1  0.62940765  0.07332178  0.65242429  1.0
  P  P8289  1  0.62940765  0.21617892  0.65242429  1.0
  P  P8290  1  0.62940765  0.35903606  0.65242429  1.0
  P  P8291  1  0.62940765  0.50189321  0.65242429  1.0
  P  P8292  1  0.62940765  0.64475035  0.65242429  1.0
  P  P8293  1  0.62940765  0.78760749  0.65242429  1.0
  P  P8294  1  0.62940765  0.93046464  0.65242429  1.0
  P  P8295  1  0.74051876  0.07332178  0.65242429  1.0
  P  P8296  1  0.74051876  0.21617892  0.65242429  1.0
  P  P8297  1  0.74051876  0.35903606  0.65242429  1.0
  P  P8298  1  0.74051876  0.50189321  0.65242429  1.0
  P  P8299  1  0.74051876  0.64475035  0.65242429  1.0
  P  P8300  1  0.74051876  0.78760749  0.65242429  1.0
  P  P8301  1  0.74051876  0.93046464  0.65242429  1.0
  P  P8302  1  0.85162987  0.07332178  0.65242429  1.0
  P  P8303  1  0.85162987  0.21617892  0.65242429  1.0
  P  P8304  1  0.85162987  0.35903606  0.65242429  1.0
  P  P8305  1  0.85162987  0.50189321  0.65242429  1.0
  P  P8306  1  0.85162987  0.64475035  0.65242429  1.0
  P  P8307  1  0.85162987  0.78760749  0.65242429  1.0
  P  P8308  1  0.85162987  0.93046464  0.65242429  1.0
  P  P8309  1  0.96274099  0.07332178  0.65242429  1.0
  P  P8310  1  0.96274099  0.21617892  0.65242429  1.0
  P  P8311  1  0.96274099  0.35903606  0.65242429  1.0
  P  P8312  1  0.96274099  0.50189321  0.65242429  1.0
  P  P8313  1  0.96274099  0.64475035  0.65242429  1.0
  P  P8314  1  0.96274099  0.78760749  0.65242429  1.0
  P  P8315  1  0.96274099  0.93046464  0.65242429  1.0
  P  P8316  1  0.10474467  0.01016209  0.73002994  1.0
  P  P8317  1  0.10474467  0.15301923  0.73002994  1.0
  P  P8318  1  0.10474467  0.29587637  0.73002994  1.0
  P  P8319  1  0.10474467  0.43873352  0.73002994  1.0
  P  P8320  1  0.10474467  0.58159066  0.73002994  1.0
  P  P8321  1  0.10474467  0.72444780  0.73002994  1.0
  P  P8322  1  0.10474467  0.86730495  0.73002994  1.0
  P  P8323  1  0.21585578  0.01016209  0.73002994  1.0
  P  P8324  1  0.21585578  0.15301923  0.73002994  1.0
  P  P8325  1  0.21585578  0.29587637  0.73002994  1.0
  P  P8326  1  0.21585578  0.43873352  0.73002994  1.0
  P  P8327  1  0.21585578  0.58159066  0.73002994  1.0
  P  P8328  1  0.21585578  0.72444780  0.73002994  1.0
  P  P8329  1  0.21585578  0.86730495  0.73002994  1.0
  P  P8330  1  0.32696689  0.01016209  0.73002994  1.0
  P  P8331  1  0.32696689  0.15301923  0.73002994  1.0
  P  P8332  1  0.32696689  0.29587637  0.73002994  1.0
  P  P8333  1  0.32696689  0.43873352  0.73002994  1.0
  P  P8334  1  0.32696689  0.58159066  0.73002994  1.0
  P  P8335  1  0.32696689  0.72444780  0.73002994  1.0
  P  P8336  1  0.32696689  0.86730495  0.73002994  1.0
  P  P8337  1  0.43807800  0.01016209  0.73002994  1.0
  P  P8338  1  0.43807800  0.15301923  0.73002994  1.0
  P  P8339  1  0.43807800  0.29587637  0.73002994  1.0
  P  P8340  1  0.43807800  0.43873352  0.73002994  1.0
  P  P8341  1  0.43807800  0.58159066  0.73002994  1.0
  P  P8342  1  0.43807800  0.72444780  0.73002994  1.0
  P  P8343  1  0.43807800  0.86730495  0.73002994  1.0
  P  P8344  1  0.54918911  0.01016209  0.73002994  1.0
  P  P8345  1  0.54918911  0.15301923  0.73002994  1.0
  P  P8346  1  0.54918911  0.29587637  0.73002994  1.0
  P  P8347  1  0.54918911  0.43873352  0.73002994  1.0
  P  P8348  1  0.54918911  0.58159066  0.73002994  1.0
  P  P8349  1  0.54918911  0.72444780  0.73002994  1.0
  P  P8350  1  0.54918911  0.86730495  0.73002994  1.0
  P  P8351  1  0.66030022  0.01016209  0.73002994  1.0
  P  P8352  1  0.66030022  0.15301923  0.73002994  1.0
  P  P8353  1  0.66030022  0.29587637  0.73002994  1.0
  P  P8354  1  0.66030022  0.43873352  0.73002994  1.0
  P  P8355  1  0.66030022  0.58159066  0.73002994  1.0
  P  P8356  1  0.66030022  0.72444780  0.73002994  1.0
  P  P8357  1  0.66030022  0.86730495  0.73002994  1.0
  P  P8358  1  0.77141133  0.01016209  0.73002994  1.0
  P  P8359  1  0.77141133  0.15301923  0.73002994  1.0
  P  P8360  1  0.77141133  0.29587637  0.73002994  1.0
  P  P8361  1  0.77141133  0.43873352  0.73002994  1.0
  P  P8362  1  0.77141133  0.58159066  0.73002994  1.0
  P  P8363  1  0.77141133  0.72444780  0.73002994  1.0
  P  P8364  1  0.77141133  0.86730495  0.73002994  1.0
  P  P8365  1  0.88252245  0.01016209  0.73002994  1.0
  P  P8366  1  0.88252245  0.15301923  0.73002994  1.0
  P  P8367  1  0.88252245  0.29587637  0.73002994  1.0
  P  P8368  1  0.88252245  0.43873352  0.73002994  1.0
  P  P8369  1  0.88252245  0.58159066  0.73002994  1.0
  P  P8370  1  0.88252245  0.72444780  0.73002994  1.0
  P  P8371  1  0.88252245  0.86730495  0.73002994  1.0
  P  P8372  1  0.99363356  0.01016209  0.73002994  1.0
  P  P8373  1  0.99363356  0.15301923  0.73002994  1.0
  P  P8374  1  0.99363356  0.29587637  0.73002994  1.0
  P  P8375  1  0.99363356  0.43873352  0.73002994  1.0
  P  P8376  1  0.99363356  0.58159066  0.73002994  1.0
  P  P8377  1  0.99363356  0.72444780  0.73002994  1.0
  P  P8378  1  0.99363356  0.86730495  0.73002994  1.0
  P  P8379  1  0.01479758  0.02376753  0.77764899  1.0
  P  P8380  1  0.01479758  0.16662467  0.77764899  1.0
  P  P8381  1  0.01479758  0.30948182  0.77764899  1.0
  P  P8382  1  0.01479758  0.45233896  0.77764899  1.0
  P  P8383  1  0.01479758  0.59519610  0.77764899  1.0
  P  P8384  1  0.01479758  0.73805324  0.77764899  1.0
  P  P8385  1  0.01479758  0.88091039  0.77764899  1.0
  P  P8386  1  0.12590869  0.02376753  0.77764899  1.0
  P  P8387  1  0.12590869  0.16662467  0.77764899  1.0
  P  P8388  1  0.12590869  0.30948182  0.77764899  1.0
  P  P8389  1  0.12590869  0.45233896  0.77764899  1.0
  P  P8390  1  0.12590869  0.59519610  0.77764899  1.0
  P  P8391  1  0.12590869  0.73805324  0.77764899  1.0
  P  P8392  1  0.12590869  0.88091039  0.77764899  1.0
  P  P8393  1  0.23701980  0.02376753  0.77764899  1.0
  P  P8394  1  0.23701980  0.16662467  0.77764899  1.0
  P  P8395  1  0.23701980  0.30948182  0.77764899  1.0
  P  P8396  1  0.23701980  0.45233896  0.77764899  1.0
  P  P8397  1  0.23701980  0.59519610  0.77764899  1.0
  P  P8398  1  0.23701980  0.73805324  0.77764899  1.0
  P  P8399  1  0.23701980  0.88091039  0.77764899  1.0
  P  P8400  1  0.34813091  0.02376753  0.77764899  1.0
  P  P8401  1  0.34813091  0.16662467  0.77764899  1.0
  P  P8402  1  0.34813091  0.30948182  0.77764899  1.0
  P  P8403  1  0.34813091  0.45233896  0.77764899  1.0
  P  P8404  1  0.34813091  0.59519610  0.77764899  1.0
  P  P8405  1  0.34813091  0.73805324  0.77764899  1.0
  P  P8406  1  0.34813091  0.88091039  0.77764899  1.0
  P  P8407  1  0.45924202  0.02376753  0.77764899  1.0
  P  P8408  1  0.45924202  0.16662467  0.77764899  1.0
  P  P8409  1  0.45924202  0.30948182  0.77764899  1.0
  P  P8410  1  0.45924202  0.45233896  0.77764899  1.0
  P  P8411  1  0.45924202  0.59519610  0.77764899  1.0
  P  P8412  1  0.45924202  0.73805324  0.77764899  1.0
  P  P8413  1  0.45924202  0.88091039  0.77764899  1.0
  P  P8414  1  0.57035313  0.02376753  0.77764899  1.0
  P  P8415  1  0.57035313  0.16662467  0.77764899  1.0
  P  P8416  1  0.57035313  0.30948182  0.77764899  1.0
  P  P8417  1  0.57035313  0.45233896  0.77764899  1.0
  P  P8418  1  0.57035313  0.59519610  0.77764899  1.0
  P  P8419  1  0.57035313  0.73805324  0.77764899  1.0
  P  P8420  1  0.57035313  0.88091039  0.77764899  1.0
  P  P8421  1  0.68146424  0.02376753  0.77764899  1.0
  P  P8422  1  0.68146424  0.16662467  0.77764899  1.0
  P  P8423  1  0.68146424  0.30948182  0.77764899  1.0
  P  P8424  1  0.68146424  0.45233896  0.77764899  1.0
  P  P8425  1  0.68146424  0.59519610  0.77764899  1.0
  P  P8426  1  0.68146424  0.73805324  0.77764899  1.0
  P  P8427  1  0.68146424  0.88091039  0.77764899  1.0
  P  P8428  1  0.79257536  0.02376753  0.77764899  1.0
  P  P8429  1  0.79257536  0.16662467  0.77764899  1.0
  P  P8430  1  0.79257536  0.30948182  0.77764899  1.0
  P  P8431  1  0.79257536  0.45233896  0.77764899  1.0
  P  P8432  1  0.79257536  0.59519610  0.77764899  1.0
  P  P8433  1  0.79257536  0.73805324  0.77764899  1.0
  P  P8434  1  0.79257536  0.88091039  0.77764899  1.0
  P  P8435  1  0.90368647  0.02376753  0.77764899  1.0
  P  P8436  1  0.90368647  0.16662467  0.77764899  1.0
  P  P8437  1  0.90368647  0.30948182  0.77764899  1.0
  P  P8438  1  0.90368647  0.45233896  0.77764899  1.0
  P  P8439  1  0.90368647  0.59519610  0.77764899  1.0
  P  P8440  1  0.90368647  0.73805324  0.77764899  1.0
  P  P8441  1  0.90368647  0.88091039  0.77764899  1.0
  P  P8442  1  0.08358065  0.13941379  0.68241089  1.0
  P  P8443  1  0.08358065  0.28227093  0.68241089  1.0
  P  P8444  1  0.08358065  0.42512807  0.68241089  1.0
  P  P8445  1  0.08358065  0.56798522  0.68241089  1.0
  P  P8446  1  0.08358065  0.71084236  0.68241089  1.0
  P  P8447  1  0.08358065  0.85369950  0.68241089  1.0
  P  P8448  1  0.08358065  0.99655665  0.68241089  1.0
  P  P8449  1  0.19469176  0.13941379  0.68241089  1.0
  P  P8450  1  0.19469176  0.28227093  0.68241089  1.0
  P  P8451  1  0.19469176  0.42512807  0.68241089  1.0
  P  P8452  1  0.19469176  0.56798522  0.68241089  1.0
  P  P8453  1  0.19469176  0.71084236  0.68241089  1.0
  P  P8454  1  0.19469176  0.85369950  0.68241089  1.0
  P  P8455  1  0.19469176  0.99655665  0.68241089  1.0
  P  P8456  1  0.30580287  0.13941379  0.68241089  1.0
  P  P8457  1  0.30580287  0.28227093  0.68241089  1.0
  P  P8458  1  0.30580287  0.42512807  0.68241089  1.0
  P  P8459  1  0.30580287  0.56798522  0.68241089  1.0
  P  P8460  1  0.30580287  0.71084236  0.68241089  1.0
  P  P8461  1  0.30580287  0.85369950  0.68241089  1.0
  P  P8462  1  0.30580287  0.99655665  0.68241089  1.0
  P  P8463  1  0.41691398  0.13941379  0.68241089  1.0
  P  P8464  1  0.41691398  0.28227093  0.68241089  1.0
  P  P8465  1  0.41691398  0.42512807  0.68241089  1.0
  P  P8466  1  0.41691398  0.56798522  0.68241089  1.0
  P  P8467  1  0.41691398  0.71084236  0.68241089  1.0
  P  P8468  1  0.41691398  0.85369950  0.68241089  1.0
  P  P8469  1  0.41691398  0.99655665  0.68241089  1.0
  P  P8470  1  0.52802509  0.13941379  0.68241089  1.0
  P  P8471  1  0.52802509  0.28227093  0.68241089  1.0
  P  P8472  1  0.52802509  0.42512807  0.68241089  1.0
  P  P8473  1  0.52802509  0.56798522  0.68241089  1.0
  P  P8474  1  0.52802509  0.71084236  0.68241089  1.0
  P  P8475  1  0.52802509  0.85369950  0.68241089  1.0
  P  P8476  1  0.52802509  0.99655665  0.68241089  1.0
  P  P8477  1  0.63913620  0.13941379  0.68241089  1.0
  P  P8478  1  0.63913620  0.28227093  0.68241089  1.0
  P  P8479  1  0.63913620  0.42512807  0.68241089  1.0
  P  P8480  1  0.63913620  0.56798522  0.68241089  1.0
  P  P8481  1  0.63913620  0.71084236  0.68241089  1.0
  P  P8482  1  0.63913620  0.85369950  0.68241089  1.0
  P  P8483  1  0.63913620  0.99655665  0.68241089  1.0
  P  P8484  1  0.75024731  0.13941379  0.68241089  1.0
  P  P8485  1  0.75024731  0.28227093  0.68241089  1.0
  P  P8486  1  0.75024731  0.42512807  0.68241089  1.0
  P  P8487  1  0.75024731  0.56798522  0.68241089  1.0
  P  P8488  1  0.75024731  0.71084236  0.68241089  1.0
  P  P8489  1  0.75024731  0.85369950  0.68241089  1.0
  P  P8490  1  0.75024731  0.99655665  0.68241089  1.0
  P  P8491  1  0.86135842  0.13941379  0.68241089  1.0
  P  P8492  1  0.86135842  0.28227093  0.68241089  1.0
  P  P8493  1  0.86135842  0.42512807  0.68241089  1.0
  P  P8494  1  0.86135842  0.56798522  0.68241089  1.0
  P  P8495  1  0.86135842  0.71084236  0.68241089  1.0
  P  P8496  1  0.86135842  0.85369950  0.68241089  1.0
  P  P8497  1  0.86135842  0.99655665  0.68241089  1.0
  P  P8498  1  0.97246954  0.13941379  0.68241089  1.0
  P  P8499  1  0.97246954  0.28227093  0.68241089  1.0
  P  P8500  1  0.97246954  0.42512807  0.68241089  1.0
  P  P8501  1  0.97246954  0.56798522  0.68241089  1.0
  P  P8502  1  0.97246954  0.71084236  0.68241089  1.0
  P  P8503  1  0.97246954  0.85369950  0.68241089  1.0
  P  P8504  1  0.97246954  0.99655665  0.68241089  1.0
  P  P8505  1  0.00636644  0.13269505  0.69854149  1.0
  P  P8506  1  0.00636644  0.27555220  0.69854149  1.0
  P  P8507  1  0.00636644  0.41840934  0.69854149  1.0
  P  P8508  1  0.00636644  0.56126648  0.69854149  1.0
  P  P8509  1  0.00636644  0.70412363  0.69854149  1.0
  P  P8510  1  0.00636644  0.84698077  0.69854149  1.0
  P  P8511  1  0.00636644  0.98983791  0.69854149  1.0
  P  P8512  1  0.11747755  0.13269505  0.69854149  1.0
  P  P8513  1  0.11747755  0.27555220  0.69854149  1.0
  P  P8514  1  0.11747755  0.41840934  0.69854149  1.0
  P  P8515  1  0.11747755  0.56126648  0.69854149  1.0
  P  P8516  1  0.11747755  0.70412363  0.69854149  1.0
  P  P8517  1  0.11747755  0.84698077  0.69854149  1.0
  P  P8518  1  0.11747755  0.98983791  0.69854149  1.0
  P  P8519  1  0.22858867  0.13269505  0.69854149  1.0
  P  P8520  1  0.22858867  0.27555220  0.69854149  1.0
  P  P8521  1  0.22858867  0.41840934  0.69854149  1.0
  P  P8522  1  0.22858867  0.56126648  0.69854149  1.0
  P  P8523  1  0.22858867  0.70412363  0.69854149  1.0
  P  P8524  1  0.22858867  0.84698077  0.69854149  1.0
  P  P8525  1  0.22858867  0.98983791  0.69854149  1.0
  P  P8526  1  0.33969978  0.13269505  0.69854149  1.0
  P  P8527  1  0.33969978  0.27555220  0.69854149  1.0
  P  P8528  1  0.33969978  0.41840934  0.69854149  1.0
  P  P8529  1  0.33969978  0.56126648  0.69854149  1.0
  P  P8530  1  0.33969978  0.70412363  0.69854149  1.0
  P  P8531  1  0.33969978  0.84698077  0.69854149  1.0
  P  P8532  1  0.33969978  0.98983791  0.69854149  1.0
  P  P8533  1  0.45081089  0.13269505  0.69854149  1.0
  P  P8534  1  0.45081089  0.27555220  0.69854149  1.0
  P  P8535  1  0.45081089  0.41840934  0.69854149  1.0
  P  P8536  1  0.45081089  0.56126648  0.69854149  1.0
  P  P8537  1  0.45081089  0.70412363  0.69854149  1.0
  P  P8538  1  0.45081089  0.84698077  0.69854149  1.0
  P  P8539  1  0.45081089  0.98983791  0.69854149  1.0
  P  P8540  1  0.56192200  0.13269505  0.69854149  1.0
  P  P8541  1  0.56192200  0.27555220  0.69854149  1.0
  P  P8542  1  0.56192200  0.41840934  0.69854149  1.0
  P  P8543  1  0.56192200  0.56126648  0.69854149  1.0
  P  P8544  1  0.56192200  0.70412363  0.69854149  1.0
  P  P8545  1  0.56192200  0.84698077  0.69854149  1.0
  P  P8546  1  0.56192200  0.98983791  0.69854149  1.0
  P  P8547  1  0.67303311  0.13269505  0.69854149  1.0
  P  P8548  1  0.67303311  0.27555220  0.69854149  1.0
  P  P8549  1  0.67303311  0.41840934  0.69854149  1.0
  P  P8550  1  0.67303311  0.56126648  0.69854149  1.0
  P  P8551  1  0.67303311  0.70412363  0.69854149  1.0
  P  P8552  1  0.67303311  0.84698077  0.69854149  1.0
  P  P8553  1  0.67303311  0.98983791  0.69854149  1.0
  P  P8554  1  0.78414422  0.13269505  0.69854149  1.0
  P  P8555  1  0.78414422  0.27555220  0.69854149  1.0
  P  P8556  1  0.78414422  0.41840934  0.69854149  1.0
  P  P8557  1  0.78414422  0.56126648  0.69854149  1.0
  P  P8558  1  0.78414422  0.70412363  0.69854149  1.0
  P  P8559  1  0.78414422  0.84698077  0.69854149  1.0
  P  P8560  1  0.78414422  0.98983791  0.69854149  1.0
  P  P8561  1  0.89525533  0.13269505  0.69854149  1.0
  P  P8562  1  0.89525533  0.27555220  0.69854149  1.0
  P  P8563  1  0.89525533  0.41840934  0.69854149  1.0
  P  P8564  1  0.89525533  0.56126648  0.69854149  1.0
  P  P8565  1  0.89525533  0.70412363  0.69854149  1.0
  P  P8566  1  0.89525533  0.84698077  0.69854149  1.0
  P  P8567  1  0.89525533  0.98983791  0.69854149  1.0
  P  P8568  1  0.02753046  0.00344335  0.74616054  1.0
  P  P8569  1  0.02753046  0.14630050  0.74616054  1.0
  P  P8570  1  0.02753046  0.28915764  0.74616054  1.0
  P  P8571  1  0.02753046  0.43201478  0.74616054  1.0
  P  P8572  1  0.02753046  0.57487193  0.74616054  1.0
  P  P8573  1  0.02753046  0.71772907  0.74616054  1.0
  P  P8574  1  0.02753046  0.86058621  0.74616054  1.0
  P  P8575  1  0.13864158  0.00344335  0.74616054  1.0
  P  P8576  1  0.13864158  0.14630050  0.74616054  1.0
  P  P8577  1  0.13864158  0.28915764  0.74616054  1.0
  P  P8578  1  0.13864158  0.43201478  0.74616054  1.0
  P  P8579  1  0.13864158  0.57487193  0.74616054  1.0
  P  P8580  1  0.13864158  0.71772907  0.74616054  1.0
  P  P8581  1  0.13864158  0.86058621  0.74616054  1.0
  P  P8582  1  0.24975269  0.00344335  0.74616054  1.0
  P  P8583  1  0.24975269  0.14630050  0.74616054  1.0
  P  P8584  1  0.24975269  0.28915764  0.74616054  1.0
  P  P8585  1  0.24975269  0.43201478  0.74616054  1.0
  P  P8586  1  0.24975269  0.57487193  0.74616054  1.0
  P  P8587  1  0.24975269  0.71772907  0.74616054  1.0
  P  P8588  1  0.24975269  0.86058621  0.74616054  1.0
  P  P8589  1  0.36086380  0.00344335  0.74616054  1.0
  P  P8590  1  0.36086380  0.14630050  0.74616054  1.0
  P  P8591  1  0.36086380  0.28915764  0.74616054  1.0
  P  P8592  1  0.36086380  0.43201478  0.74616054  1.0
  P  P8593  1  0.36086380  0.57487193  0.74616054  1.0
  P  P8594  1  0.36086380  0.71772907  0.74616054  1.0
  P  P8595  1  0.36086380  0.86058621  0.74616054  1.0
  P  P8596  1  0.47197491  0.00344335  0.74616054  1.0
  P  P8597  1  0.47197491  0.14630050  0.74616054  1.0
  P  P8598  1  0.47197491  0.28915764  0.74616054  1.0
  P  P8599  1  0.47197491  0.43201478  0.74616054  1.0
  P  P8600  1  0.47197491  0.57487193  0.74616054  1.0
  P  P8601  1  0.47197491  0.71772907  0.74616054  1.0
  P  P8602  1  0.47197491  0.86058621  0.74616054  1.0
  P  P8603  1  0.58308602  0.00344335  0.74616054  1.0
  P  P8604  1  0.58308602  0.14630050  0.74616054  1.0
  P  P8605  1  0.58308602  0.28915764  0.74616054  1.0
  P  P8606  1  0.58308602  0.43201478  0.74616054  1.0
  P  P8607  1  0.58308602  0.57487193  0.74616054  1.0
  P  P8608  1  0.58308602  0.71772907  0.74616054  1.0
  P  P8609  1  0.58308602  0.86058621  0.74616054  1.0
  P  P8610  1  0.69419713  0.00344335  0.74616054  1.0
  P  P8611  1  0.69419713  0.14630050  0.74616054  1.0
  P  P8612  1  0.69419713  0.28915764  0.74616054  1.0
  P  P8613  1  0.69419713  0.43201478  0.74616054  1.0
  P  P8614  1  0.69419713  0.57487193  0.74616054  1.0
  P  P8615  1  0.69419713  0.71772907  0.74616054  1.0
  P  P8616  1  0.69419713  0.86058621  0.74616054  1.0
  P  P8617  1  0.80530824  0.00344335  0.74616054  1.0
  P  P8618  1  0.80530824  0.14630050  0.74616054  1.0
  P  P8619  1  0.80530824  0.28915764  0.74616054  1.0
  P  P8620  1  0.80530824  0.43201478  0.74616054  1.0
  P  P8621  1  0.80530824  0.57487193  0.74616054  1.0
  P  P8622  1  0.80530824  0.71772907  0.74616054  1.0
  P  P8623  1  0.80530824  0.86058621  0.74616054  1.0
  P  P8624  1  0.91641935  0.00344335  0.74616054  1.0
  P  P8625  1  0.91641935  0.14630050  0.74616054  1.0
  P  P8626  1  0.91641935  0.28915764  0.74616054  1.0
  P  P8627  1  0.91641935  0.43201478  0.74616054  1.0
  P  P8628  1  0.91641935  0.57487193  0.74616054  1.0
  P  P8629  1  0.91641935  0.71772907  0.74616054  1.0
  P  P8630  1  0.91641935  0.86058621  0.74616054  1.0
  P  P8631  1  0.09631353  0.11908961  0.65092244  1.0
  P  P8632  1  0.09631353  0.26194676  0.65092244  1.0
  P  P8633  1  0.09631353  0.40480390  0.65092244  1.0
  P  P8634  1  0.09631353  0.54766104  0.65092244  1.0
  P  P8635  1  0.09631353  0.69051818  0.65092244  1.0
  P  P8636  1  0.09631353  0.83337533  0.65092244  1.0
  P  P8637  1  0.09631353  0.97623247  0.65092244  1.0
  P  P8638  1  0.20742464  0.11908961  0.65092244  1.0
  P  P8639  1  0.20742464  0.26194676  0.65092244  1.0
  P  P8640  1  0.20742464  0.40480390  0.65092244  1.0
  P  P8641  1  0.20742464  0.54766104  0.65092244  1.0
  P  P8642  1  0.20742464  0.69051818  0.65092244  1.0
  P  P8643  1  0.20742464  0.83337533  0.65092244  1.0
  P  P8644  1  0.20742464  0.97623247  0.65092244  1.0
  P  P8645  1  0.31853576  0.11908961  0.65092244  1.0
  P  P8646  1  0.31853576  0.26194676  0.65092244  1.0
  P  P8647  1  0.31853576  0.40480390  0.65092244  1.0
  P  P8648  1  0.31853576  0.54766104  0.65092244  1.0
  P  P8649  1  0.31853576  0.69051818  0.65092244  1.0
  P  P8650  1  0.31853576  0.83337533  0.65092244  1.0
  P  P8651  1  0.31853576  0.97623247  0.65092244  1.0
  P  P8652  1  0.42964687  0.11908961  0.65092244  1.0
  P  P8653  1  0.42964687  0.26194676  0.65092244  1.0
  P  P8654  1  0.42964687  0.40480390  0.65092244  1.0
  P  P8655  1  0.42964687  0.54766104  0.65092244  1.0
  P  P8656  1  0.42964687  0.69051818  0.65092244  1.0
  P  P8657  1  0.42964687  0.83337533  0.65092244  1.0
  P  P8658  1  0.42964687  0.97623247  0.65092244  1.0
  P  P8659  1  0.54075798  0.11908961  0.65092244  1.0
  P  P8660  1  0.54075798  0.26194676  0.65092244  1.0
  P  P8661  1  0.54075798  0.40480390  0.65092244  1.0
  P  P8662  1  0.54075798  0.54766104  0.65092244  1.0
  P  P8663  1  0.54075798  0.69051818  0.65092244  1.0
  P  P8664  1  0.54075798  0.83337533  0.65092244  1.0
  P  P8665  1  0.54075798  0.97623247  0.65092244  1.0
  P  P8666  1  0.65186909  0.11908961  0.65092244  1.0
  P  P8667  1  0.65186909  0.26194676  0.65092244  1.0
  P  P8668  1  0.65186909  0.40480390  0.65092244  1.0
  P  P8669  1  0.65186909  0.54766104  0.65092244  1.0
  P  P8670  1  0.65186909  0.69051818  0.65092244  1.0
  P  P8671  1  0.65186909  0.83337533  0.65092244  1.0
  P  P8672  1  0.65186909  0.97623247  0.65092244  1.0
  P  P8673  1  0.76298020  0.11908961  0.65092244  1.0
  P  P8674  1  0.76298020  0.26194676  0.65092244  1.0
  P  P8675  1  0.76298020  0.40480390  0.65092244  1.0
  P  P8676  1  0.76298020  0.54766104  0.65092244  1.0
  P  P8677  1  0.76298020  0.69051818  0.65092244  1.0
  P  P8678  1  0.76298020  0.83337533  0.65092244  1.0
  P  P8679  1  0.76298020  0.97623247  0.65092244  1.0
  P  P8680  1  0.87409131  0.11908961  0.65092244  1.0
  P  P8681  1  0.87409131  0.26194676  0.65092244  1.0
  P  P8682  1  0.87409131  0.40480390  0.65092244  1.0
  P  P8683  1  0.87409131  0.54766104  0.65092244  1.0
  P  P8684  1  0.87409131  0.69051818  0.65092244  1.0
  P  P8685  1  0.87409131  0.83337533  0.65092244  1.0
  P  P8686  1  0.87409131  0.97623247  0.65092244  1.0
  P  P8687  1  0.98520242  0.11908961  0.65092244  1.0
  P  P8688  1  0.98520242  0.26194676  0.65092244  1.0
  P  P8689  1  0.98520242  0.40480390  0.65092244  1.0
  P  P8690  1  0.98520242  0.54766104  0.65092244  1.0
  P  P8691  1  0.98520242  0.69051818  0.65092244  1.0
  P  P8692  1  0.98520242  0.83337533  0.65092244  1.0
  P  P8693  1  0.98520242  0.97623247  0.65092244  1.0
  P  P8694  1  0.05086726  0.07134199  0.73380576  1.0
  P  P8695  1  0.05086726  0.21419913  0.73380576  1.0
  P  P8696  1  0.05086726  0.35705628  0.73380576  1.0
  P  P8697  1  0.05086726  0.49991342  0.73380576  1.0
  P  P8698  1  0.05086726  0.64277056  0.73380576  1.0
  P  P8699  1  0.05086726  0.78562770  0.73380576  1.0
  P  P8700  1  0.05086726  0.92848485  0.73380576  1.0
  P  P8701  1  0.16197837  0.07134199  0.73380576  1.0
  P  P8702  1  0.16197837  0.21419913  0.73380576  1.0
  P  P8703  1  0.16197837  0.35705628  0.73380576  1.0
  P  P8704  1  0.16197837  0.49991342  0.73380576  1.0
  P  P8705  1  0.16197837  0.64277056  0.73380576  1.0
  P  P8706  1  0.16197837  0.78562770  0.73380576  1.0
  P  P8707  1  0.16197837  0.92848485  0.73380576  1.0
  P  P8708  1  0.27308948  0.07134199  0.73380576  1.0
  P  P8709  1  0.27308948  0.21419913  0.73380576  1.0
  P  P8710  1  0.27308948  0.35705628  0.73380576  1.0
  P  P8711  1  0.27308948  0.49991342  0.73380576  1.0
  P  P8712  1  0.27308948  0.64277056  0.73380576  1.0
  P  P8713  1  0.27308948  0.78562770  0.73380576  1.0
  P  P8714  1  0.27308948  0.92848485  0.73380576  1.0
  P  P8715  1  0.38420059  0.07134199  0.73380576  1.0
  P  P8716  1  0.38420059  0.21419913  0.73380576  1.0
  P  P8717  1  0.38420059  0.35705628  0.73380576  1.0
  P  P8718  1  0.38420059  0.49991342  0.73380576  1.0
  P  P8719  1  0.38420059  0.64277056  0.73380576  1.0
  P  P8720  1  0.38420059  0.78562770  0.73380576  1.0
  P  P8721  1  0.38420059  0.92848485  0.73380576  1.0
  P  P8722  1  0.49531170  0.07134199  0.73380576  1.0
  P  P8723  1  0.49531170  0.21419913  0.73380576  1.0
  P  P8724  1  0.49531170  0.35705628  0.73380576  1.0
  P  P8725  1  0.49531170  0.49991342  0.73380576  1.0
  P  P8726  1  0.49531170  0.64277056  0.73380576  1.0
  P  P8727  1  0.49531170  0.78562770  0.73380576  1.0
  P  P8728  1  0.49531170  0.92848485  0.73380576  1.0
  P  P8729  1  0.60642281  0.07134199  0.73380576  1.0
  P  P8730  1  0.60642281  0.21419913  0.73380576  1.0
  P  P8731  1  0.60642281  0.35705628  0.73380576  1.0
  P  P8732  1  0.60642281  0.49991342  0.73380576  1.0
  P  P8733  1  0.60642281  0.64277056  0.73380576  1.0
  P  P8734  1  0.60642281  0.78562770  0.73380576  1.0
  P  P8735  1  0.60642281  0.92848485  0.73380576  1.0
  P  P8736  1  0.71753392  0.07134199  0.73380576  1.0
  P  P8737  1  0.71753392  0.21419913  0.73380576  1.0
  P  P8738  1  0.71753392  0.35705628  0.73380576  1.0
  P  P8739  1  0.71753392  0.49991342  0.73380576  1.0
  P  P8740  1  0.71753392  0.64277056  0.73380576  1.0
  P  P8741  1  0.71753392  0.78562770  0.73380576  1.0
  P  P8742  1  0.71753392  0.92848485  0.73380576  1.0
  P  P8743  1  0.82864503  0.07134199  0.73380576  1.0
  P  P8744  1  0.82864503  0.21419913  0.73380576  1.0
  P  P8745  1  0.82864503  0.35705628  0.73380576  1.0
  P  P8746  1  0.82864503  0.49991342  0.73380576  1.0
  P  P8747  1  0.82864503  0.64277056  0.73380576  1.0
  P  P8748  1  0.82864503  0.78562770  0.73380576  1.0
  P  P8749  1  0.82864503  0.92848485  0.73380576  1.0
  P  P8750  1  0.93975615  0.07134199  0.73380576  1.0
  P  P8751  1  0.93975615  0.21419913  0.73380576  1.0
  P  P8752  1  0.93975615  0.35705628  0.73380576  1.0
  P  P8753  1  0.93975615  0.49991342  0.73380576  1.0
  P  P8754  1  0.93975615  0.64277056  0.73380576  1.0
  P  P8755  1  0.93975615  0.78562770  0.73380576  1.0
  P  P8756  1  0.93975615  0.92848485  0.73380576  1.0
  P  P8757  1  0.07203128  0.08494743  0.78142481  1.0
  P  P8758  1  0.07203128  0.22780458  0.78142481  1.0
  P  P8759  1  0.07203128  0.37066172  0.78142481  1.0
  P  P8760  1  0.07203128  0.51351886  0.78142481  1.0
  P  P8761  1  0.07203128  0.65637600  0.78142481  1.0
  P  P8762  1  0.07203128  0.79923315  0.78142481  1.0
  P  P8763  1  0.07203128  0.94209029  0.78142481  1.0
  P  P8764  1  0.18314239  0.08494743  0.78142481  1.0
  P  P8765  1  0.18314239  0.22780458  0.78142481  1.0
  P  P8766  1  0.18314239  0.37066172  0.78142481  1.0
  P  P8767  1  0.18314239  0.51351886  0.78142481  1.0
  P  P8768  1  0.18314239  0.65637600  0.78142481  1.0
  P  P8769  1  0.18314239  0.79923315  0.78142481  1.0
  P  P8770  1  0.18314239  0.94209029  0.78142481  1.0
  P  P8771  1  0.29425350  0.08494743  0.78142481  1.0
  P  P8772  1  0.29425350  0.22780458  0.78142481  1.0
  P  P8773  1  0.29425350  0.37066172  0.78142481  1.0
  P  P8774  1  0.29425350  0.51351886  0.78142481  1.0
  P  P8775  1  0.29425350  0.65637600  0.78142481  1.0
  P  P8776  1  0.29425350  0.79923315  0.78142481  1.0
  P  P8777  1  0.29425350  0.94209029  0.78142481  1.0
  P  P8778  1  0.40536461  0.08494743  0.78142481  1.0
  P  P8779  1  0.40536461  0.22780458  0.78142481  1.0
  P  P8780  1  0.40536461  0.37066172  0.78142481  1.0
  P  P8781  1  0.40536461  0.51351886  0.78142481  1.0
  P  P8782  1  0.40536461  0.65637600  0.78142481  1.0
  P  P8783  1  0.40536461  0.79923315  0.78142481  1.0
  P  P8784  1  0.40536461  0.94209029  0.78142481  1.0
  P  P8785  1  0.51647572  0.08494743  0.78142481  1.0
  P  P8786  1  0.51647572  0.22780458  0.78142481  1.0
  P  P8787  1  0.51647572  0.37066172  0.78142481  1.0
  P  P8788  1  0.51647572  0.51351886  0.78142481  1.0
  P  P8789  1  0.51647572  0.65637600  0.78142481  1.0
  P  P8790  1  0.51647572  0.79923315  0.78142481  1.0
  P  P8791  1  0.51647572  0.94209029  0.78142481  1.0
  P  P8792  1  0.62758683  0.08494743  0.78142481  1.0
  P  P8793  1  0.62758683  0.22780458  0.78142481  1.0
  P  P8794  1  0.62758683  0.37066172  0.78142481  1.0
  P  P8795  1  0.62758683  0.51351886  0.78142481  1.0
  P  P8796  1  0.62758683  0.65637600  0.78142481  1.0
  P  P8797  1  0.62758683  0.79923315  0.78142481  1.0
  P  P8798  1  0.62758683  0.94209029  0.78142481  1.0
  P  P8799  1  0.73869794  0.08494743  0.78142481  1.0
  P  P8800  1  0.73869794  0.22780458  0.78142481  1.0
  P  P8801  1  0.73869794  0.37066172  0.78142481  1.0
  P  P8802  1  0.73869794  0.51351886  0.78142481  1.0
  P  P8803  1  0.73869794  0.65637600  0.78142481  1.0
  P  P8804  1  0.73869794  0.79923315  0.78142481  1.0
  P  P8805  1  0.73869794  0.94209029  0.78142481  1.0
  P  P8806  1  0.84980906  0.08494743  0.78142481  1.0
  P  P8807  1  0.84980906  0.22780458  0.78142481  1.0
  P  P8808  1  0.84980906  0.37066172  0.78142481  1.0
  P  P8809  1  0.84980906  0.51351886  0.78142481  1.0
  P  P8810  1  0.84980906  0.65637600  0.78142481  1.0
  P  P8811  1  0.84980906  0.79923315  0.78142481  1.0
  P  P8812  1  0.84980906  0.94209029  0.78142481  1.0
  P  P8813  1  0.96092017  0.08494743  0.78142481  1.0
  P  P8814  1  0.96092017  0.22780458  0.78142481  1.0
  P  P8815  1  0.96092017  0.37066172  0.78142481  1.0
  P  P8816  1  0.96092017  0.51351886  0.78142481  1.0
  P  P8817  1  0.96092017  0.65637600  0.78142481  1.0
  P  P8818  1  0.96092017  0.79923315  0.78142481  1.0
  P  P8819  1  0.96092017  0.94209029  0.78142481  1.0
  P  P8820  1  0.02970324  0.05773655  0.68618672  1.0
  P  P8821  1  0.02970324  0.20059369  0.68618672  1.0
  P  P8822  1  0.02970324  0.34345083  0.68618672  1.0
  P  P8823  1  0.02970324  0.48630798  0.68618672  1.0
  P  P8824  1  0.02970324  0.62916512  0.68618672  1.0
  P  P8825  1  0.02970324  0.77202226  0.68618672  1.0
  P  P8826  1  0.02970324  0.91487941  0.68618672  1.0
  P  P8827  1  0.14081435  0.05773655  0.68618672  1.0
  P  P8828  1  0.14081435  0.20059369  0.68618672  1.0
  P  P8829  1  0.14081435  0.34345083  0.68618672  1.0
  P  P8830  1  0.14081435  0.48630798  0.68618672  1.0
  P  P8831  1  0.14081435  0.62916512  0.68618672  1.0
  P  P8832  1  0.14081435  0.77202226  0.68618672  1.0
  P  P8833  1  0.14081435  0.91487941  0.68618672  1.0
  P  P8834  1  0.25192546  0.05773655  0.68618672  1.0
  P  P8835  1  0.25192546  0.20059369  0.68618672  1.0
  P  P8836  1  0.25192546  0.34345083  0.68618672  1.0
  P  P8837  1  0.25192546  0.48630798  0.68618672  1.0
  P  P8838  1  0.25192546  0.62916512  0.68618672  1.0
  P  P8839  1  0.25192546  0.77202226  0.68618672  1.0
  P  P8840  1  0.25192546  0.91487941  0.68618672  1.0
  P  P8841  1  0.36303657  0.05773655  0.68618672  1.0
  P  P8842  1  0.36303657  0.20059369  0.68618672  1.0
  P  P8843  1  0.36303657  0.34345083  0.68618672  1.0
  P  P8844  1  0.36303657  0.48630798  0.68618672  1.0
  P  P8845  1  0.36303657  0.62916512  0.68618672  1.0
  P  P8846  1  0.36303657  0.77202226  0.68618672  1.0
  P  P8847  1  0.36303657  0.91487941  0.68618672  1.0
  P  P8848  1  0.47414768  0.05773655  0.68618672  1.0
  P  P8849  1  0.47414768  0.20059369  0.68618672  1.0
  P  P8850  1  0.47414768  0.34345083  0.68618672  1.0
  P  P8851  1  0.47414768  0.48630798  0.68618672  1.0
  P  P8852  1  0.47414768  0.62916512  0.68618672  1.0
  P  P8853  1  0.47414768  0.77202226  0.68618672  1.0
  P  P8854  1  0.47414768  0.91487941  0.68618672  1.0
  P  P8855  1  0.58525879  0.05773655  0.68618672  1.0
  P  P8856  1  0.58525879  0.20059369  0.68618672  1.0
  P  P8857  1  0.58525879  0.34345083  0.68618672  1.0
  P  P8858  1  0.58525879  0.48630798  0.68618672  1.0
  P  P8859  1  0.58525879  0.62916512  0.68618672  1.0
  P  P8860  1  0.58525879  0.77202226  0.68618672  1.0
  P  P8861  1  0.58525879  0.91487941  0.68618672  1.0
  P  P8862  1  0.69636990  0.05773655  0.68618672  1.0
  P  P8863  1  0.69636990  0.20059369  0.68618672  1.0
  P  P8864  1  0.69636990  0.34345083  0.68618672  1.0
  P  P8865  1  0.69636990  0.48630798  0.68618672  1.0
  P  P8866  1  0.69636990  0.62916512  0.68618672  1.0
  P  P8867  1  0.69636990  0.77202226  0.68618672  1.0
  P  P8868  1  0.69636990  0.91487941  0.68618672  1.0
  P  P8869  1  0.80748101  0.05773655  0.68618672  1.0
  P  P8870  1  0.80748101  0.20059369  0.68618672  1.0
  P  P8871  1  0.80748101  0.34345083  0.68618672  1.0
  P  P8872  1  0.80748101  0.48630798  0.68618672  1.0
  P  P8873  1  0.80748101  0.62916512  0.68618672  1.0
  P  P8874  1  0.80748101  0.77202226  0.68618672  1.0
  P  P8875  1  0.80748101  0.91487941  0.68618672  1.0
  P  P8876  1  0.91859212  0.05773655  0.68618672  1.0
  P  P8877  1  0.91859212  0.20059369  0.68618672  1.0
  P  P8878  1  0.91859212  0.34345083  0.68618672  1.0
  P  P8879  1  0.91859212  0.48630798  0.68618672  1.0
  P  P8880  1  0.91859212  0.62916512  0.68618672  1.0
  P  P8881  1  0.91859212  0.77202226  0.68618672  1.0
  P  P8882  1  0.91859212  0.91487941  0.68618672  1.0
  P  P8883  1  0.06024385  0.07151515  0.69476566  1.0
  P  P8884  1  0.06024385  0.21437230  0.69476566  1.0
  P  P8885  1  0.06024385  0.35722944  0.69476566  1.0
  P  P8886  1  0.06024385  0.50008658  0.69476566  1.0
  P  P8887  1  0.06024385  0.64294372  0.69476566  1.0
  P  P8888  1  0.06024385  0.78580087  0.69476566  1.0
  P  P8889  1  0.06024385  0.92865801  0.69476566  1.0
  P  P8890  1  0.17135497  0.07151515  0.69476566  1.0
  P  P8891  1  0.17135497  0.21437230  0.69476566  1.0
  P  P8892  1  0.17135497  0.35722944  0.69476566  1.0
  P  P8893  1  0.17135497  0.50008658  0.69476566  1.0
  P  P8894  1  0.17135497  0.64294372  0.69476566  1.0
  P  P8895  1  0.17135497  0.78580087  0.69476566  1.0
  P  P8896  1  0.17135497  0.92865801  0.69476566  1.0
  P  P8897  1  0.28246608  0.07151515  0.69476566  1.0
  P  P8898  1  0.28246608  0.21437230  0.69476566  1.0
  P  P8899  1  0.28246608  0.35722944  0.69476566  1.0
  P  P8900  1  0.28246608  0.50008658  0.69476566  1.0
  P  P8901  1  0.28246608  0.64294372  0.69476566  1.0
  P  P8902  1  0.28246608  0.78580087  0.69476566  1.0
  P  P8903  1  0.28246608  0.92865801  0.69476566  1.0
  P  P8904  1  0.39357719  0.07151515  0.69476566  1.0
  P  P8905  1  0.39357719  0.21437230  0.69476566  1.0
  P  P8906  1  0.39357719  0.35722944  0.69476566  1.0
  P  P8907  1  0.39357719  0.50008658  0.69476566  1.0
  P  P8908  1  0.39357719  0.64294372  0.69476566  1.0
  P  P8909  1  0.39357719  0.78580087  0.69476566  1.0
  P  P8910  1  0.39357719  0.92865801  0.69476566  1.0
  P  P8911  1  0.50468830  0.07151515  0.69476566  1.0
  P  P8912  1  0.50468830  0.21437230  0.69476566  1.0
  P  P8913  1  0.50468830  0.35722944  0.69476566  1.0
  P  P8914  1  0.50468830  0.50008658  0.69476566  1.0
  P  P8915  1  0.50468830  0.64294372  0.69476566  1.0
  P  P8916  1  0.50468830  0.78580087  0.69476566  1.0
  P  P8917  1  0.50468830  0.92865801  0.69476566  1.0
  P  P8918  1  0.61579941  0.07151515  0.69476566  1.0
  P  P8919  1  0.61579941  0.21437230  0.69476566  1.0
  P  P8920  1  0.61579941  0.35722944  0.69476566  1.0
  P  P8921  1  0.61579941  0.50008658  0.69476566  1.0
  P  P8922  1  0.61579941  0.64294372  0.69476566  1.0
  P  P8923  1  0.61579941  0.78580087  0.69476566  1.0
  P  P8924  1  0.61579941  0.92865801  0.69476566  1.0
  P  P8925  1  0.72691052  0.07151515  0.69476566  1.0
  P  P8926  1  0.72691052  0.21437230  0.69476566  1.0
  P  P8927  1  0.72691052  0.35722944  0.69476566  1.0
  P  P8928  1  0.72691052  0.50008658  0.69476566  1.0
  P  P8929  1  0.72691052  0.64294372  0.69476566  1.0
  P  P8930  1  0.72691052  0.78580087  0.69476566  1.0
  P  P8931  1  0.72691052  0.92865801  0.69476566  1.0
  P  P8932  1  0.83802163  0.07151515  0.69476566  1.0
  P  P8933  1  0.83802163  0.21437230  0.69476566  1.0
  P  P8934  1  0.83802163  0.35722944  0.69476566  1.0
  P  P8935  1  0.83802163  0.50008658  0.69476566  1.0
  P  P8936  1  0.83802163  0.64294372  0.69476566  1.0
  P  P8937  1  0.83802163  0.78580087  0.69476566  1.0
  P  P8938  1  0.83802163  0.92865801  0.69476566  1.0
  P  P8939  1  0.94913274  0.07151515  0.69476566  1.0
  P  P8940  1  0.94913274  0.21437230  0.69476566  1.0
  P  P8941  1  0.94913274  0.35722944  0.69476566  1.0
  P  P8942  1  0.94913274  0.50008658  0.69476566  1.0
  P  P8943  1  0.94913274  0.64294372  0.69476566  1.0
  P  P8944  1  0.94913274  0.78580087  0.69476566  1.0
  P  P8945  1  0.94913274  0.92865801  0.69476566  1.0
  P  P8946  1  0.08140788  0.08512059  0.74238471  1.0
  P  P8947  1  0.08140788  0.22797774  0.74238471  1.0
  P  P8948  1  0.08140788  0.37083488  0.74238471  1.0
  P  P8949  1  0.08140788  0.51369202  0.74238471  1.0
  P  P8950  1  0.08140788  0.65654917  0.74238471  1.0
  P  P8951  1  0.08140788  0.79940631  0.74238471  1.0
  P  P8952  1  0.08140788  0.94226345  0.74238471  1.0
  P  P8953  1  0.19251899  0.08512059  0.74238471  1.0
  P  P8954  1  0.19251899  0.22797774  0.74238471  1.0
  P  P8955  1  0.19251899  0.37083488  0.74238471  1.0
  P  P8956  1  0.19251899  0.51369202  0.74238471  1.0
  P  P8957  1  0.19251899  0.65654917  0.74238471  1.0
  P  P8958  1  0.19251899  0.79940631  0.74238471  1.0
  P  P8959  1  0.19251899  0.94226345  0.74238471  1.0
  P  P8960  1  0.30363010  0.08512059  0.74238471  1.0
  P  P8961  1  0.30363010  0.22797774  0.74238471  1.0
  P  P8962  1  0.30363010  0.37083488  0.74238471  1.0
  P  P8963  1  0.30363010  0.51369202  0.74238471  1.0
  P  P8964  1  0.30363010  0.65654917  0.74238471  1.0
  P  P8965  1  0.30363010  0.79940631  0.74238471  1.0
  P  P8966  1  0.30363010  0.94226345  0.74238471  1.0
  P  P8967  1  0.41474121  0.08512059  0.74238471  1.0
  P  P8968  1  0.41474121  0.22797774  0.74238471  1.0
  P  P8969  1  0.41474121  0.37083488  0.74238471  1.0
  P  P8970  1  0.41474121  0.51369202  0.74238471  1.0
  P  P8971  1  0.41474121  0.65654917  0.74238471  1.0
  P  P8972  1  0.41474121  0.79940631  0.74238471  1.0
  P  P8973  1  0.41474121  0.94226345  0.74238471  1.0
  P  P8974  1  0.52585232  0.08512059  0.74238471  1.0
  P  P8975  1  0.52585232  0.22797774  0.74238471  1.0
  P  P8976  1  0.52585232  0.37083488  0.74238471  1.0
  P  P8977  1  0.52585232  0.51369202  0.74238471  1.0
  P  P8978  1  0.52585232  0.65654917  0.74238471  1.0
  P  P8979  1  0.52585232  0.79940631  0.74238471  1.0
  P  P8980  1  0.52585232  0.94226345  0.74238471  1.0
  P  P8981  1  0.63696343  0.08512059  0.74238471  1.0
  P  P8982  1  0.63696343  0.22797774  0.74238471  1.0
  P  P8983  1  0.63696343  0.37083488  0.74238471  1.0
  P  P8984  1  0.63696343  0.51369202  0.74238471  1.0
  P  P8985  1  0.63696343  0.65654917  0.74238471  1.0
  P  P8986  1  0.63696343  0.79940631  0.74238471  1.0
  P  P8987  1  0.63696343  0.94226345  0.74238471  1.0
  P  P8988  1  0.74807454  0.08512059  0.74238471  1.0
  P  P8989  1  0.74807454  0.22797774  0.74238471  1.0
  P  P8990  1  0.74807454  0.37083488  0.74238471  1.0
  P  P8991  1  0.74807454  0.51369202  0.74238471  1.0
  P  P8992  1  0.74807454  0.65654917  0.74238471  1.0
  P  P8993  1  0.74807454  0.79940631  0.74238471  1.0
  P  P8994  1  0.74807454  0.94226345  0.74238471  1.0
  P  P8995  1  0.85918565  0.08512059  0.74238471  1.0
  P  P8996  1  0.85918565  0.22797774  0.74238471  1.0
  P  P8997  1  0.85918565  0.37083488  0.74238471  1.0
  P  P8998  1  0.85918565  0.51369202  0.74238471  1.0
  P  P8999  1  0.85918565  0.65654917  0.74238471  1.0
  P  P9000  1  0.85918565  0.79940631  0.74238471  1.0
  P  P9001  1  0.85918565  0.94226345  0.74238471  1.0
  P  P9002  1  0.97029676  0.08512059  0.74238471  1.0
  P  P9003  1  0.97029676  0.22797774  0.74238471  1.0
  P  P9004  1  0.97029676  0.37083488  0.74238471  1.0
  P  P9005  1  0.97029676  0.51369202  0.74238471  1.0
  P  P9006  1  0.97029676  0.65654917  0.74238471  1.0
  P  P9007  1  0.97029676  0.79940631  0.74238471  1.0
  P  P9008  1  0.97029676  0.94226345  0.74238471  1.0
  P  P9009  1  0.03907983  0.05790971  0.64714662  1.0
  P  P9010  1  0.03907983  0.20076685  0.64714662  1.0
  P  P9011  1  0.03907983  0.34362400  0.64714662  1.0
  P  P9012  1  0.03907983  0.48648114  0.64714662  1.0
  P  P9013  1  0.03907983  0.62933828  0.64714662  1.0
  P  P9014  1  0.03907983  0.77219542  0.64714662  1.0
  P  P9015  1  0.03907983  0.91505257  0.64714662  1.0
  P  P9016  1  0.15019094  0.05790971  0.64714662  1.0
  P  P9017  1  0.15019094  0.20076685  0.64714662  1.0
  P  P9018  1  0.15019094  0.34362400  0.64714662  1.0
  P  P9019  1  0.15019094  0.48648114  0.64714662  1.0
  P  P9020  1  0.15019094  0.62933828  0.64714662  1.0
  P  P9021  1  0.15019094  0.77219542  0.64714662  1.0
  P  P9022  1  0.15019094  0.91505257  0.64714662  1.0
  P  P9023  1  0.26130206  0.05790971  0.64714662  1.0
  P  P9024  1  0.26130206  0.20076685  0.64714662  1.0
  P  P9025  1  0.26130206  0.34362400  0.64714662  1.0
  P  P9026  1  0.26130206  0.48648114  0.64714662  1.0
  P  P9027  1  0.26130206  0.62933828  0.64714662  1.0
  P  P9028  1  0.26130206  0.77219542  0.64714662  1.0
  P  P9029  1  0.26130206  0.91505257  0.64714662  1.0
  P  P9030  1  0.37241317  0.05790971  0.64714662  1.0
  P  P9031  1  0.37241317  0.20076685  0.64714662  1.0
  P  P9032  1  0.37241317  0.34362400  0.64714662  1.0
  P  P9033  1  0.37241317  0.48648114  0.64714662  1.0
  P  P9034  1  0.37241317  0.62933828  0.64714662  1.0
  P  P9035  1  0.37241317  0.77219542  0.64714662  1.0
  P  P9036  1  0.37241317  0.91505257  0.64714662  1.0
  P  P9037  1  0.48352428  0.05790971  0.64714662  1.0
  P  P9038  1  0.48352428  0.20076685  0.64714662  1.0
  P  P9039  1  0.48352428  0.34362400  0.64714662  1.0
  P  P9040  1  0.48352428  0.48648114  0.64714662  1.0
  P  P9041  1  0.48352428  0.62933828  0.64714662  1.0
  P  P9042  1  0.48352428  0.77219542  0.64714662  1.0
  P  P9043  1  0.48352428  0.91505257  0.64714662  1.0
  P  P9044  1  0.59463539  0.05790971  0.64714662  1.0
  P  P9045  1  0.59463539  0.20076685  0.64714662  1.0
  P  P9046  1  0.59463539  0.34362400  0.64714662  1.0
  P  P9047  1  0.59463539  0.48648114  0.64714662  1.0
  P  P9048  1  0.59463539  0.62933828  0.64714662  1.0
  P  P9049  1  0.59463539  0.77219542  0.64714662  1.0
  P  P9050  1  0.59463539  0.91505257  0.64714662  1.0
  P  P9051  1  0.70574650  0.05790971  0.64714662  1.0
  P  P9052  1  0.70574650  0.20076685  0.64714662  1.0
  P  P9053  1  0.70574650  0.34362400  0.64714662  1.0
  P  P9054  1  0.70574650  0.48648114  0.64714662  1.0
  P  P9055  1  0.70574650  0.62933828  0.64714662  1.0
  P  P9056  1  0.70574650  0.77219542  0.64714662  1.0
  P  P9057  1  0.70574650  0.91505257  0.64714662  1.0
  P  P9058  1  0.81685761  0.05790971  0.64714662  1.0
  P  P9059  1  0.81685761  0.20076685  0.64714662  1.0
  P  P9060  1  0.81685761  0.34362400  0.64714662  1.0
  P  P9061  1  0.81685761  0.48648114  0.64714662  1.0
  P  P9062  1  0.81685761  0.62933828  0.64714662  1.0
  P  P9063  1  0.81685761  0.77219542  0.64714662  1.0
  P  P9064  1  0.81685761  0.91505257  0.64714662  1.0
  P  P9065  1  0.92796872  0.05790971  0.64714662  1.0
  P  P9066  1  0.92796872  0.20076685  0.64714662  1.0
  P  P9067  1  0.92796872  0.34362400  0.64714662  1.0
  P  P9068  1  0.92796872  0.48648114  0.64714662  1.0
  P  P9069  1  0.92796872  0.62933828  0.64714662  1.0
  P  P9070  1  0.92796872  0.77219542  0.64714662  1.0
  P  P9071  1  0.92796872  0.91505257  0.64714662  1.0
