# generated using pymatgen
data_Ti23P48
_symmetry_space_group_name_H-M   'P 1'
_cell_length_a   63.18331892
_cell_length_b   66.12086672
_cell_length_c   61.82526222
_cell_angle_alpha   90.00000000
_cell_angle_beta   91.44602739
_cell_angle_gamma   90.00000000
_symmetry_Int_Tables_number   1
_chemical_formula_structural   Ti23P48
_chemical_formula_sum   'Ti3312 P6912'
_cell_volume   258207.35700094
_cell_formula_units_Z   144
loop_
 _symmetry_equiv_pos_site_id
 _symmetry_equiv_pos_as_xyz
  1  'x, y, z'
loop_
 _atom_site_type_symbol
 _atom_site_label
 _atom_site_symmetry_multiplicity
 _atom_site_fract_x
 _atom_site_fract_y
 _atom_site_fract_z
 _atom_site_occupancy
  Ti  Ti0  1  0.00096137  0.04170092  0.25586973  1.0
  Ti  Ti1  1  0.00096137  0.16670092  0.25586973  1.0
  Ti  Ti2  1  0.00096137  0.29170092  0.25586973  1.0
  Ti  Ti3  1  0.00096137  0.41670092  0.25586973  1.0
  Ti  Ti4  1  0.00096137  0.54170092  0.25586973  1.0
  Ti  Ti5  1  0.00096137  0.66670092  0.25586973  1.0
  Ti  Ti6  1  0.00096137  0.79170092  0.25586973  1.0
  Ti  Ti7  1  0.00096137  0.91670092  0.25586973  1.0
  Ti  Ti8  1  0.11207248  0.04170092  0.25586973  1.0
  Ti  Ti9  1  0.11207248  0.16670092  0.25586973  1.0
  Ti  Ti10  1  0.11207248  0.29170092  0.25586973  1.0
  Ti  Ti11  1  0.11207248  0.41670092  0.25586973  1.0
  Ti  Ti12  1  0.11207248  0.54170092  0.25586973  1.0
  Ti  Ti13  1  0.11207248  0.66670092  0.25586973  1.0
  Ti  Ti14  1  0.11207248  0.79170092  0.25586973  1.0
  Ti  Ti15  1  0.11207248  0.91670092  0.25586973  1.0
  Ti  Ti16  1  0.22318360  0.04170092  0.25586973  1.0
  Ti  Ti17  1  0.22318360  0.16670092  0.25586973  1.0
  Ti  Ti18  1  0.22318360  0.29170092  0.25586973  1.0
  Ti  Ti19  1  0.22318360  0.41670092  0.25586973  1.0
  Ti  Ti20  1  0.22318360  0.54170092  0.25586973  1.0
  Ti  Ti21  1  0.22318360  0.66670092  0.25586973  1.0
  Ti  Ti22  1  0.22318360  0.79170092  0.25586973  1.0
  Ti  Ti23  1  0.22318360  0.91670092  0.25586973  1.0
  Ti  Ti24  1  0.33429471  0.04170092  0.25586973  1.0
  Ti  Ti25  1  0.33429471  0.16670092  0.25586973  1.0
  Ti  Ti26  1  0.33429471  0.29170092  0.25586973  1.0
  Ti  Ti27  1  0.33429471  0.41670092  0.25586973  1.0
  Ti  Ti28  1  0.33429471  0.54170092  0.25586973  1.0
  Ti  Ti29  1  0.33429471  0.66670092  0.25586973  1.0
  Ti  Ti30  1  0.33429471  0.79170092  0.25586973  1.0
  Ti  Ti31  1  0.33429471  0.91670092  0.25586973  1.0
  Ti  Ti32  1  0.44540582  0.04170092  0.25586973  1.0
  Ti  Ti33  1  0.44540582  0.16670092  0.25586973  1.0
  Ti  Ti34  1  0.44540582  0.29170092  0.25586973  1.0
  Ti  Ti35  1  0.44540582  0.41670092  0.25586973  1.0
  Ti  Ti36  1  0.44540582  0.54170092  0.25586973  1.0
  Ti  Ti37  1  0.44540582  0.66670092  0.25586973  1.0
  Ti  Ti38  1  0.44540582  0.79170092  0.25586973  1.0
  Ti  Ti39  1  0.44540582  0.91670092  0.25586973  1.0
  Ti  Ti40  1  0.55651693  0.04170092  0.25586973  1.0
  Ti  Ti41  1  0.55651693  0.16670092  0.25586973  1.0
  Ti  Ti42  1  0.55651693  0.29170092  0.25586973  1.0
  Ti  Ti43  1  0.55651693  0.41670092  0.25586973  1.0
  Ti  Ti44  1  0.55651693  0.54170092  0.25586973  1.0
  Ti  Ti45  1  0.55651693  0.66670092  0.25586973  1.0
  Ti  Ti46  1  0.55651693  0.79170092  0.25586973  1.0
  Ti  Ti47  1  0.55651693  0.91670092  0.25586973  1.0
  Ti  Ti48  1  0.66762804  0.04170092  0.25586973  1.0
  Ti  Ti49  1  0.66762804  0.16670092  0.25586973  1.0
  Ti  Ti50  1  0.66762804  0.29170092  0.25586973  1.0
  Ti  Ti51  1  0.66762804  0.41670092  0.25586973  1.0
  Ti  Ti52  1  0.66762804  0.54170092  0.25586973  1.0
  Ti  Ti53  1  0.66762804  0.66670092  0.25586973  1.0
  Ti  Ti54  1  0.66762804  0.79170092  0.25586973  1.0
  Ti  Ti55  1  0.66762804  0.91670092  0.25586973  1.0
  Ti  Ti56  1  0.77873915  0.04170092  0.25586973  1.0
  Ti  Ti57  1  0.77873915  0.16670092  0.25586973  1.0
  Ti  Ti58  1  0.77873915  0.29170092  0.25586973  1.0
  Ti  Ti59  1  0.77873915  0.41670092  0.25586973  1.0
  Ti  Ti60  1  0.77873915  0.54170092  0.25586973  1.0
  Ti  Ti61  1  0.77873915  0.66670092  0.25586973  1.0
  Ti  Ti62  1  0.77873915  0.79170092  0.25586973  1.0
  Ti  Ti63  1  0.77873915  0.91670092  0.25586973  1.0
  Ti  Ti64  1  0.88985026  0.04170092  0.25586973  1.0
  Ti  Ti65  1  0.88985026  0.16670092  0.25586973  1.0
  Ti  Ti66  1  0.88985026  0.29170092  0.25586973  1.0
  Ti  Ti67  1  0.88985026  0.41670092  0.25586973  1.0
  Ti  Ti68  1  0.88985026  0.54170092  0.25586973  1.0
  Ti  Ti69  1  0.88985026  0.66670092  0.25586973  1.0
  Ti  Ti70  1  0.88985026  0.79170092  0.25586973  1.0
  Ti  Ti71  1  0.88985026  0.91670092  0.25586973  1.0
  Ti  Ti72  1  0.05387143  0.04170092  0.35110783  1.0
  Ti  Ti73  1  0.05387143  0.16670092  0.35110783  1.0
  Ti  Ti74  1  0.05387143  0.29170092  0.35110783  1.0
  Ti  Ti75  1  0.05387143  0.41670092  0.35110783  1.0
  Ti  Ti76  1  0.05387143  0.54170092  0.35110783  1.0
  Ti  Ti77  1  0.05387143  0.66670092  0.35110783  1.0
  Ti  Ti78  1  0.05387143  0.79170092  0.35110783  1.0
  Ti  Ti79  1  0.05387143  0.91670092  0.35110783  1.0
  Ti  Ti80  1  0.16498254  0.04170092  0.35110783  1.0
  Ti  Ti81  1  0.16498254  0.16670092  0.35110783  1.0
  Ti  Ti82  1  0.16498254  0.29170092  0.35110783  1.0
  Ti  Ti83  1  0.16498254  0.41670092  0.35110783  1.0
  Ti  Ti84  1  0.16498254  0.54170092  0.35110783  1.0
  Ti  Ti85  1  0.16498254  0.66670092  0.35110783  1.0
  Ti  Ti86  1  0.16498254  0.79170092  0.35110783  1.0
  Ti  Ti87  1  0.16498254  0.91670092  0.35110783  1.0
  Ti  Ti88  1  0.27609365  0.04170092  0.35110783  1.0
  Ti  Ti89  1  0.27609365  0.16670092  0.35110783  1.0
  Ti  Ti90  1  0.27609365  0.29170092  0.35110783  1.0
  Ti  Ti91  1  0.27609365  0.41670092  0.35110783  1.0
  Ti  Ti92  1  0.27609365  0.54170092  0.35110783  1.0
  Ti  Ti93  1  0.27609365  0.66670092  0.35110783  1.0
  Ti  Ti94  1  0.27609365  0.79170092  0.35110783  1.0
  Ti  Ti95  1  0.27609365  0.91670092  0.35110783  1.0
  Ti  Ti96  1  0.38720476  0.04170092  0.35110783  1.0
  Ti  Ti97  1  0.38720476  0.16670092  0.35110783  1.0
  Ti  Ti98  1  0.38720476  0.29170092  0.35110783  1.0
  Ti  Ti99  1  0.38720476  0.41670092  0.35110783  1.0
  Ti  Ti100  1  0.38720476  0.54170092  0.35110783  1.0
  Ti  Ti101  1  0.38720476  0.66670092  0.35110783  1.0
  Ti  Ti102  1  0.38720476  0.79170092  0.35110783  1.0
  Ti  Ti103  1  0.38720476  0.91670092  0.35110783  1.0
  Ti  Ti104  1  0.49831587  0.04170092  0.35110783  1.0
  Ti  Ti105  1  0.49831587  0.16670092  0.35110783  1.0
  Ti  Ti106  1  0.49831587  0.29170092  0.35110783  1.0
  Ti  Ti107  1  0.49831587  0.41670092  0.35110783  1.0
  Ti  Ti108  1  0.49831587  0.54170092  0.35110783  1.0
  Ti  Ti109  1  0.49831587  0.66670092  0.35110783  1.0
  Ti  Ti110  1  0.49831587  0.79170092  0.35110783  1.0
  Ti  Ti111  1  0.49831587  0.91670092  0.35110783  1.0
  Ti  Ti112  1  0.60942698  0.04170092  0.35110783  1.0
  Ti  Ti113  1  0.60942698  0.16670092  0.35110783  1.0
  Ti  Ti114  1  0.60942698  0.29170092  0.35110783  1.0
  Ti  Ti115  1  0.60942698  0.41670092  0.35110783  1.0
  Ti  Ti116  1  0.60942698  0.54170092  0.35110783  1.0
  Ti  Ti117  1  0.60942698  0.66670092  0.35110783  1.0
  Ti  Ti118  1  0.60942698  0.79170092  0.35110783  1.0
  Ti  Ti119  1  0.60942698  0.91670092  0.35110783  1.0
  Ti  Ti120  1  0.72053809  0.04170092  0.35110783  1.0
  Ti  Ti121  1  0.72053809  0.16670092  0.35110783  1.0
  Ti  Ti122  1  0.72053809  0.29170092  0.35110783  1.0
  Ti  Ti123  1  0.72053809  0.41670092  0.35110783  1.0
  Ti  Ti124  1  0.72053809  0.54170092  0.35110783  1.0
  Ti  Ti125  1  0.72053809  0.66670092  0.35110783  1.0
  Ti  Ti126  1  0.72053809  0.79170092  0.35110783  1.0
  Ti  Ti127  1  0.72053809  0.91670092  0.35110783  1.0
  Ti  Ti128  1  0.83164920  0.04170092  0.35110783  1.0
  Ti  Ti129  1  0.83164920  0.16670092  0.35110783  1.0
  Ti  Ti130  1  0.83164920  0.29170092  0.35110783  1.0
  Ti  Ti131  1  0.83164920  0.41670092  0.35110783  1.0
  Ti  Ti132  1  0.83164920  0.54170092  0.35110783  1.0
  Ti  Ti133  1  0.83164920  0.66670092  0.35110783  1.0
  Ti  Ti134  1  0.83164920  0.79170092  0.35110783  1.0
  Ti  Ti135  1  0.83164920  0.91670092  0.35110783  1.0
  Ti  Ti136  1  0.94276031  0.04170092  0.35110783  1.0
  Ti  Ti137  1  0.94276031  0.16670092  0.35110783  1.0
  Ti  Ti138  1  0.94276031  0.29170092  0.35110783  1.0
  Ti  Ti139  1  0.94276031  0.41670092  0.35110783  1.0
  Ti  Ti140  1  0.94276031  0.54170092  0.35110783  1.0
  Ti  Ti141  1  0.94276031  0.66670092  0.35110783  1.0
  Ti  Ti142  1  0.94276031  0.79170092  0.35110783  1.0
  Ti  Ti143  1  0.94276031  0.91670092  0.35110783  1.0
  Ti  Ti144  1  0.02741640  0.04170092  0.30348878  1.0
  Ti  Ti145  1  0.02741640  0.16670092  0.30348878  1.0
  Ti  Ti146  1  0.02741640  0.29170092  0.30348878  1.0
  Ti  Ti147  1  0.02741640  0.41670092  0.30348878  1.0
  Ti  Ti148  1  0.02741640  0.54170092  0.30348878  1.0
  Ti  Ti149  1  0.02741640  0.66670092  0.30348878  1.0
  Ti  Ti150  1  0.02741640  0.79170092  0.30348878  1.0
  Ti  Ti151  1  0.02741640  0.91670092  0.30348878  1.0
  Ti  Ti152  1  0.13852751  0.04170092  0.30348878  1.0
  Ti  Ti153  1  0.13852751  0.16670092  0.30348878  1.0
  Ti  Ti154  1  0.13852751  0.29170092  0.30348878  1.0
  Ti  Ti155  1  0.13852751  0.41670092  0.30348878  1.0
  Ti  Ti156  1  0.13852751  0.54170092  0.30348878  1.0
  Ti  Ti157  1  0.13852751  0.66670092  0.30348878  1.0
  Ti  Ti158  1  0.13852751  0.79170092  0.30348878  1.0
  Ti  Ti159  1  0.13852751  0.91670092  0.30348878  1.0
  Ti  Ti160  1  0.24963862  0.04170092  0.30348878  1.0
  Ti  Ti161  1  0.24963862  0.16670092  0.30348878  1.0
  Ti  Ti162  1  0.24963862  0.29170092  0.30348878  1.0
  Ti  Ti163  1  0.24963862  0.41670092  0.30348878  1.0
  Ti  Ti164  1  0.24963862  0.54170092  0.30348878  1.0
  Ti  Ti165  1  0.24963862  0.66670092  0.30348878  1.0
  Ti  Ti166  1  0.24963862  0.79170092  0.30348878  1.0
  Ti  Ti167  1  0.24963862  0.91670092  0.30348878  1.0
  Ti  Ti168  1  0.36074973  0.04170092  0.30348878  1.0
  Ti  Ti169  1  0.36074973  0.16670092  0.30348878  1.0
  Ti  Ti170  1  0.36074973  0.29170092  0.30348878  1.0
  Ti  Ti171  1  0.36074973  0.41670092  0.30348878  1.0
  Ti  Ti172  1  0.36074973  0.54170092  0.30348878  1.0
  Ti  Ti173  1  0.36074973  0.66670092  0.30348878  1.0
  Ti  Ti174  1  0.36074973  0.79170092  0.30348878  1.0
  Ti  Ti175  1  0.36074973  0.91670092  0.30348878  1.0
  Ti  Ti176  1  0.47186084  0.04170092  0.30348878  1.0
  Ti  Ti177  1  0.47186084  0.16670092  0.30348878  1.0
  Ti  Ti178  1  0.47186084  0.29170092  0.30348878  1.0
  Ti  Ti179  1  0.47186084  0.41670092  0.30348878  1.0
  Ti  Ti180  1  0.47186084  0.54170092  0.30348878  1.0
  Ti  Ti181  1  0.47186084  0.66670092  0.30348878  1.0
  Ti  Ti182  1  0.47186084  0.79170092  0.30348878  1.0
  Ti  Ti183  1  0.47186084  0.91670092  0.30348878  1.0
  Ti  Ti184  1  0.58297196  0.04170092  0.30348878  1.0
  Ti  Ti185  1  0.58297196  0.16670092  0.30348878  1.0
  Ti  Ti186  1  0.58297196  0.29170092  0.30348878  1.0
  Ti  Ti187  1  0.58297196  0.41670092  0.30348878  1.0
  Ti  Ti188  1  0.58297196  0.54170092  0.30348878  1.0
  Ti  Ti189  1  0.58297196  0.66670092  0.30348878  1.0
  Ti  Ti190  1  0.58297196  0.79170092  0.30348878  1.0
  Ti  Ti191  1  0.58297196  0.91670092  0.30348878  1.0
  Ti  Ti192  1  0.69408307  0.04170092  0.30348878  1.0
  Ti  Ti193  1  0.69408307  0.16670092  0.30348878  1.0
  Ti  Ti194  1  0.69408307  0.29170092  0.30348878  1.0
  Ti  Ti195  1  0.69408307  0.41670092  0.30348878  1.0
  Ti  Ti196  1  0.69408307  0.54170092  0.30348878  1.0
  Ti  Ti197  1  0.69408307  0.66670092  0.30348878  1.0
  Ti  Ti198  1  0.69408307  0.79170092  0.30348878  1.0
  Ti  Ti199  1  0.69408307  0.91670092  0.30348878  1.0
  Ti  Ti200  1  0.80519418  0.04170092  0.30348878  1.0
  Ti  Ti201  1  0.80519418  0.16670092  0.30348878  1.0
  Ti  Ti202  1  0.80519418  0.29170092  0.30348878  1.0
  Ti  Ti203  1  0.80519418  0.41670092  0.30348878  1.0
  Ti  Ti204  1  0.80519418  0.54170092  0.30348878  1.0
  Ti  Ti205  1  0.80519418  0.66670092  0.30348878  1.0
  Ti  Ti206  1  0.80519418  0.79170092  0.30348878  1.0
  Ti  Ti207  1  0.80519418  0.91670092  0.30348878  1.0
  Ti  Ti208  1  0.91630529  0.04170092  0.30348878  1.0
  Ti  Ti209  1  0.91630529  0.16670092  0.30348878  1.0
  Ti  Ti210  1  0.91630529  0.29170092  0.30348878  1.0
  Ti  Ti211  1  0.91630529  0.41670092  0.30348878  1.0
  Ti  Ti212  1  0.91630529  0.54170092  0.30348878  1.0
  Ti  Ti213  1  0.91630529  0.66670092  0.30348878  1.0
  Ti  Ti214  1  0.91630529  0.79170092  0.30348878  1.0
  Ti  Ti215  1  0.91630529  0.91670092  0.30348878  1.0
  Ti  Ti216  1  0.05350940  0.08329908  0.25756147  1.0
  Ti  Ti217  1  0.05350940  0.20829908  0.25756147  1.0
  Ti  Ti218  1  0.05350940  0.33329908  0.25756147  1.0
  Ti  Ti219  1  0.05350940  0.45829908  0.25756147  1.0
  Ti  Ti220  1  0.05350940  0.58329908  0.25756147  1.0
  Ti  Ti221  1  0.05350940  0.70829908  0.25756147  1.0
  Ti  Ti222  1  0.05350940  0.83329908  0.25756147  1.0
  Ti  Ti223  1  0.05350940  0.95829908  0.25756147  1.0
  Ti  Ti224  1  0.16462051  0.08329908  0.25756147  1.0
  Ti  Ti225  1  0.16462051  0.20829908  0.25756147  1.0
  Ti  Ti226  1  0.16462051  0.33329908  0.25756147  1.0
  Ti  Ti227  1  0.16462051  0.45829908  0.25756147  1.0
  Ti  Ti228  1  0.16462051  0.58329908  0.25756147  1.0
  Ti  Ti229  1  0.16462051  0.70829908  0.25756147  1.0
  Ti  Ti230  1  0.16462051  0.83329908  0.25756147  1.0
  Ti  Ti231  1  0.16462051  0.95829908  0.25756147  1.0
  Ti  Ti232  1  0.27573162  0.08329908  0.25756147  1.0
  Ti  Ti233  1  0.27573162  0.20829908  0.25756147  1.0
  Ti  Ti234  1  0.27573162  0.33329908  0.25756147  1.0
  Ti  Ti235  1  0.27573162  0.45829908  0.25756147  1.0
  Ti  Ti236  1  0.27573162  0.58329908  0.25756147  1.0
  Ti  Ti237  1  0.27573162  0.70829908  0.25756147  1.0
  Ti  Ti238  1  0.27573162  0.83329908  0.25756147  1.0
  Ti  Ti239  1  0.27573162  0.95829908  0.25756147  1.0
  Ti  Ti240  1  0.38684274  0.08329908  0.25756147  1.0
  Ti  Ti241  1  0.38684274  0.20829908  0.25756147  1.0
  Ti  Ti242  1  0.38684274  0.33329908  0.25756147  1.0
  Ti  Ti243  1  0.38684274  0.45829908  0.25756147  1.0
  Ti  Ti244  1  0.38684274  0.58329908  0.25756147  1.0
  Ti  Ti245  1  0.38684274  0.70829908  0.25756147  1.0
  Ti  Ti246  1  0.38684274  0.83329908  0.25756147  1.0
  Ti  Ti247  1  0.38684274  0.95829908  0.25756147  1.0
  Ti  Ti248  1  0.49795385  0.08329908  0.25756147  1.0
  Ti  Ti249  1  0.49795385  0.20829908  0.25756147  1.0
  Ti  Ti250  1  0.49795385  0.33329908  0.25756147  1.0
  Ti  Ti251  1  0.49795385  0.45829908  0.25756147  1.0
  Ti  Ti252  1  0.49795385  0.58329908  0.25756147  1.0
  Ti  Ti253  1  0.49795385  0.70829908  0.25756147  1.0
  Ti  Ti254  1  0.49795385  0.83329908  0.25756147  1.0
  Ti  Ti255  1  0.49795385  0.95829908  0.25756147  1.0
  Ti  Ti256  1  0.60906496  0.08329908  0.25756147  1.0
  Ti  Ti257  1  0.60906496  0.20829908  0.25756147  1.0
  Ti  Ti258  1  0.60906496  0.33329908  0.25756147  1.0
  Ti  Ti259  1  0.60906496  0.45829908  0.25756147  1.0
  Ti  Ti260  1  0.60906496  0.58329908  0.25756147  1.0
  Ti  Ti261  1  0.60906496  0.70829908  0.25756147  1.0
  Ti  Ti262  1  0.60906496  0.83329908  0.25756147  1.0
  Ti  Ti263  1  0.60906496  0.95829908  0.25756147  1.0
  Ti  Ti264  1  0.72017607  0.08329908  0.25756147  1.0
  Ti  Ti265  1  0.72017607  0.20829908  0.25756147  1.0
  Ti  Ti266  1  0.72017607  0.33329908  0.25756147  1.0
  Ti  Ti267  1  0.72017607  0.45829908  0.25756147  1.0
  Ti  Ti268  1  0.72017607  0.58329908  0.25756147  1.0
  Ti  Ti269  1  0.72017607  0.70829908  0.25756147  1.0
  Ti  Ti270  1  0.72017607  0.83329908  0.25756147  1.0
  Ti  Ti271  1  0.72017607  0.95829908  0.25756147  1.0
  Ti  Ti272  1  0.83128718  0.08329908  0.25756147  1.0
  Ti  Ti273  1  0.83128718  0.20829908  0.25756147  1.0
  Ti  Ti274  1  0.83128718  0.33329908  0.25756147  1.0
  Ti  Ti275  1  0.83128718  0.45829908  0.25756147  1.0
  Ti  Ti276  1  0.83128718  0.58329908  0.25756147  1.0
  Ti  Ti277  1  0.83128718  0.70829908  0.25756147  1.0
  Ti  Ti278  1  0.83128718  0.83329908  0.25756147  1.0
  Ti  Ti279  1  0.83128718  0.95829908  0.25756147  1.0
  Ti  Ti280  1  0.94239829  0.08329908  0.25756147  1.0
  Ti  Ti281  1  0.94239829  0.20829908  0.25756147  1.0
  Ti  Ti282  1  0.94239829  0.33329908  0.25756147  1.0
  Ti  Ti283  1  0.94239829  0.45829908  0.25756147  1.0
  Ti  Ti284  1  0.94239829  0.58329908  0.25756147  1.0
  Ti  Ti285  1  0.94239829  0.70829908  0.25756147  1.0
  Ti  Ti286  1  0.94239829  0.83329908  0.25756147  1.0
  Ti  Ti287  1  0.94239829  0.95829908  0.25756147  1.0
  Ti  Ti288  1  0.10641946  0.08329908  0.35279956  1.0
  Ti  Ti289  1  0.10641946  0.20829908  0.35279956  1.0
  Ti  Ti290  1  0.10641946  0.33329908  0.35279956  1.0
  Ti  Ti291  1  0.10641946  0.45829908  0.35279956  1.0
  Ti  Ti292  1  0.10641946  0.58329908  0.35279956  1.0
  Ti  Ti293  1  0.10641946  0.70829908  0.35279956  1.0
  Ti  Ti294  1  0.10641946  0.83329908  0.35279956  1.0
  Ti  Ti295  1  0.10641946  0.95829908  0.35279956  1.0
  Ti  Ti296  1  0.21753057  0.08329908  0.35279956  1.0
  Ti  Ti297  1  0.21753057  0.20829908  0.35279956  1.0
  Ti  Ti298  1  0.21753057  0.33329908  0.35279956  1.0
  Ti  Ti299  1  0.21753057  0.45829908  0.35279956  1.0
  Ti  Ti300  1  0.21753057  0.58329908  0.35279956  1.0
  Ti  Ti301  1  0.21753057  0.70829908  0.35279956  1.0
  Ti  Ti302  1  0.21753057  0.83329908  0.35279956  1.0
  Ti  Ti303  1  0.21753057  0.95829908  0.35279956  1.0
  Ti  Ti304  1  0.32864168  0.08329908  0.35279956  1.0
  Ti  Ti305  1  0.32864168  0.20829908  0.35279956  1.0
  Ti  Ti306  1  0.32864168  0.33329908  0.35279956  1.0
  Ti  Ti307  1  0.32864168  0.45829908  0.35279956  1.0
  Ti  Ti308  1  0.32864168  0.58329908  0.35279956  1.0
  Ti  Ti309  1  0.32864168  0.70829908  0.35279956  1.0
  Ti  Ti310  1  0.32864168  0.83329908  0.35279956  1.0
  Ti  Ti311  1  0.32864168  0.95829908  0.35279956  1.0
  Ti  Ti312  1  0.43975279  0.08329908  0.35279956  1.0
  Ti  Ti313  1  0.43975279  0.20829908  0.35279956  1.0
  Ti  Ti314  1  0.43975279  0.33329908  0.35279956  1.0
  Ti  Ti315  1  0.43975279  0.45829908  0.35279956  1.0
  Ti  Ti316  1  0.43975279  0.58329908  0.35279956  1.0
  Ti  Ti317  1  0.43975279  0.70829908  0.35279956  1.0
  Ti  Ti318  1  0.43975279  0.83329908  0.35279956  1.0
  Ti  Ti319  1  0.43975279  0.95829908  0.35279956  1.0
  Ti  Ti320  1  0.55086390  0.08329908  0.35279956  1.0
  Ti  Ti321  1  0.55086390  0.20829908  0.35279956  1.0
  Ti  Ti322  1  0.55086390  0.33329908  0.35279956  1.0
  Ti  Ti323  1  0.55086390  0.45829908  0.35279956  1.0
  Ti  Ti324  1  0.55086390  0.58329908  0.35279956  1.0
  Ti  Ti325  1  0.55086390  0.70829908  0.35279956  1.0
  Ti  Ti326  1  0.55086390  0.83329908  0.35279956  1.0
  Ti  Ti327  1  0.55086390  0.95829908  0.35279956  1.0
  Ti  Ti328  1  0.66197501  0.08329908  0.35279956  1.0
  Ti  Ti329  1  0.66197501  0.20829908  0.35279956  1.0
  Ti  Ti330  1  0.66197501  0.33329908  0.35279956  1.0
  Ti  Ti331  1  0.66197501  0.45829908  0.35279956  1.0
  Ti  Ti332  1  0.66197501  0.58329908  0.35279956  1.0
  Ti  Ti333  1  0.66197501  0.70829908  0.35279956  1.0
  Ti  Ti334  1  0.66197501  0.83329908  0.35279956  1.0
  Ti  Ti335  1  0.66197501  0.95829908  0.35279956  1.0
  Ti  Ti336  1  0.77308612  0.08329908  0.35279956  1.0
  Ti  Ti337  1  0.77308612  0.20829908  0.35279956  1.0
  Ti  Ti338  1  0.77308612  0.33329908  0.35279956  1.0
  Ti  Ti339  1  0.77308612  0.45829908  0.35279956  1.0
  Ti  Ti340  1  0.77308612  0.58329908  0.35279956  1.0
  Ti  Ti341  1  0.77308612  0.70829908  0.35279956  1.0
  Ti  Ti342  1  0.77308612  0.83329908  0.35279956  1.0
  Ti  Ti343  1  0.77308612  0.95829908  0.35279956  1.0
  Ti  Ti344  1  0.88419723  0.08329908  0.35279956  1.0
  Ti  Ti345  1  0.88419723  0.20829908  0.35279956  1.0
  Ti  Ti346  1  0.88419723  0.33329908  0.35279956  1.0
  Ti  Ti347  1  0.88419723  0.45829908  0.35279956  1.0
  Ti  Ti348  1  0.88419723  0.58329908  0.35279956  1.0
  Ti  Ti349  1  0.88419723  0.70829908  0.35279956  1.0
  Ti  Ti350  1  0.88419723  0.83329908  0.35279956  1.0
  Ti  Ti351  1  0.88419723  0.95829908  0.35279956  1.0
  Ti  Ti352  1  0.99530834  0.08329908  0.35279956  1.0
  Ti  Ti353  1  0.99530834  0.20829908  0.35279956  1.0
  Ti  Ti354  1  0.99530834  0.33329908  0.35279956  1.0
  Ti  Ti355  1  0.99530834  0.45829908  0.35279956  1.0
  Ti  Ti356  1  0.99530834  0.58329908  0.35279956  1.0
  Ti  Ti357  1  0.99530834  0.70829908  0.35279956  1.0
  Ti  Ti358  1  0.99530834  0.83329908  0.35279956  1.0
  Ti  Ti359  1  0.99530834  0.95829908  0.35279956  1.0
  Ti  Ti360  1  0.07996443  0.08329908  0.30518052  1.0
  Ti  Ti361  1  0.07996443  0.20829908  0.30518052  1.0
  Ti  Ti362  1  0.07996443  0.33329908  0.30518052  1.0
  Ti  Ti363  1  0.07996443  0.45829908  0.30518052  1.0
  Ti  Ti364  1  0.07996443  0.58329908  0.30518052  1.0
  Ti  Ti365  1  0.07996443  0.70829908  0.30518052  1.0
  Ti  Ti366  1  0.07996443  0.83329908  0.30518052  1.0
  Ti  Ti367  1  0.07996443  0.95829908  0.30518052  1.0
  Ti  Ti368  1  0.19107554  0.08329908  0.30518052  1.0
  Ti  Ti369  1  0.19107554  0.20829908  0.30518052  1.0
  Ti  Ti370  1  0.19107554  0.33329908  0.30518052  1.0
  Ti  Ti371  1  0.19107554  0.45829908  0.30518052  1.0
  Ti  Ti372  1  0.19107554  0.58329908  0.30518052  1.0
  Ti  Ti373  1  0.19107554  0.70829908  0.30518052  1.0
  Ti  Ti374  1  0.19107554  0.83329908  0.30518052  1.0
  Ti  Ti375  1  0.19107554  0.95829908  0.30518052  1.0
  Ti  Ti376  1  0.30218665  0.08329908  0.30518052  1.0
  Ti  Ti377  1  0.30218665  0.20829908  0.30518052  1.0
  Ti  Ti378  1  0.30218665  0.33329908  0.30518052  1.0
  Ti  Ti379  1  0.30218665  0.45829908  0.30518052  1.0
  Ti  Ti380  1  0.30218665  0.58329908  0.30518052  1.0
  Ti  Ti381  1  0.30218665  0.70829908  0.30518052  1.0
  Ti  Ti382  1  0.30218665  0.83329908  0.30518052  1.0
  Ti  Ti383  1  0.30218665  0.95829908  0.30518052  1.0
  Ti  Ti384  1  0.41329776  0.08329908  0.30518052  1.0
  Ti  Ti385  1  0.41329776  0.20829908  0.30518052  1.0
  Ti  Ti386  1  0.41329776  0.33329908  0.30518052  1.0
  Ti  Ti387  1  0.41329776  0.45829908  0.30518052  1.0
  Ti  Ti388  1  0.41329776  0.58329908  0.30518052  1.0
  Ti  Ti389  1  0.41329776  0.70829908  0.30518052  1.0
  Ti  Ti390  1  0.41329776  0.83329908  0.30518052  1.0
  Ti  Ti391  1  0.41329776  0.95829908  0.30518052  1.0
  Ti  Ti392  1  0.52440887  0.08329908  0.30518052  1.0
  Ti  Ti393  1  0.52440887  0.20829908  0.30518052  1.0
  Ti  Ti394  1  0.52440887  0.33329908  0.30518052  1.0
  Ti  Ti395  1  0.52440887  0.45829908  0.30518052  1.0
  Ti  Ti396  1  0.52440887  0.58329908  0.30518052  1.0
  Ti  Ti397  1  0.52440887  0.70829908  0.30518052  1.0
  Ti  Ti398  1  0.52440887  0.83329908  0.30518052  1.0
  Ti  Ti399  1  0.52440887  0.95829908  0.30518052  1.0
  Ti  Ti400  1  0.63551998  0.08329908  0.30518052  1.0
  Ti  Ti401  1  0.63551998  0.20829908  0.30518052  1.0
  Ti  Ti402  1  0.63551998  0.33329908  0.30518052  1.0
  Ti  Ti403  1  0.63551998  0.45829908  0.30518052  1.0
  Ti  Ti404  1  0.63551998  0.58329908  0.30518052  1.0
  Ti  Ti405  1  0.63551998  0.70829908  0.30518052  1.0
  Ti  Ti406  1  0.63551998  0.83329908  0.30518052  1.0
  Ti  Ti407  1  0.63551998  0.95829908  0.30518052  1.0
  Ti  Ti408  1  0.74663110  0.08329908  0.30518052  1.0
  Ti  Ti409  1  0.74663110  0.20829908  0.30518052  1.0
  Ti  Ti410  1  0.74663110  0.33329908  0.30518052  1.0
  Ti  Ti411  1  0.74663110  0.45829908  0.30518052  1.0
  Ti  Ti412  1  0.74663110  0.58329908  0.30518052  1.0
  Ti  Ti413  1  0.74663110  0.70829908  0.30518052  1.0
  Ti  Ti414  1  0.74663110  0.83329908  0.30518052  1.0
  Ti  Ti415  1  0.74663110  0.95829908  0.30518052  1.0
  Ti  Ti416  1  0.85774221  0.08329908  0.30518052  1.0
  Ti  Ti417  1  0.85774221  0.20829908  0.30518052  1.0
  Ti  Ti418  1  0.85774221  0.33329908  0.30518052  1.0
  Ti  Ti419  1  0.85774221  0.45829908  0.30518052  1.0
  Ti  Ti420  1  0.85774221  0.58329908  0.30518052  1.0
  Ti  Ti421  1  0.85774221  0.70829908  0.30518052  1.0
  Ti  Ti422  1  0.85774221  0.83329908  0.30518052  1.0
  Ti  Ti423  1  0.85774221  0.95829908  0.30518052  1.0
  Ti  Ti424  1  0.96885332  0.08329908  0.30518052  1.0
  Ti  Ti425  1  0.96885332  0.20829908  0.30518052  1.0
  Ti  Ti426  1  0.96885332  0.33329908  0.30518052  1.0
  Ti  Ti427  1  0.96885332  0.45829908  0.30518052  1.0
  Ti  Ti428  1  0.96885332  0.58329908  0.30518052  1.0
  Ti  Ti429  1  0.96885332  0.70829908  0.30518052  1.0
  Ti  Ti430  1  0.96885332  0.83329908  0.30518052  1.0
  Ti  Ti431  1  0.96885332  0.95829908  0.30518052  1.0
  Ti  Ti432  1  0.06974444  0.02079908  0.27967926  1.0
  Ti  Ti433  1  0.06974444  0.14579908  0.27967926  1.0
  Ti  Ti434  1  0.06974444  0.27079908  0.27967926  1.0
  Ti  Ti435  1  0.06974444  0.39579908  0.27967926  1.0
  Ti  Ti436  1  0.06974444  0.52079908  0.27967926  1.0
  Ti  Ti437  1  0.06974444  0.64579908  0.27967926  1.0
  Ti  Ti438  1  0.06974444  0.77079908  0.27967926  1.0
  Ti  Ti439  1  0.06974444  0.89579908  0.27967926  1.0
  Ti  Ti440  1  0.18085555  0.02079908  0.27967926  1.0
  Ti  Ti441  1  0.18085555  0.14579908  0.27967926  1.0
  Ti  Ti442  1  0.18085555  0.27079908  0.27967926  1.0
  Ti  Ti443  1  0.18085555  0.39579908  0.27967926  1.0
  Ti  Ti444  1  0.18085555  0.52079908  0.27967926  1.0
  Ti  Ti445  1  0.18085555  0.64579908  0.27967926  1.0
  Ti  Ti446  1  0.18085555  0.77079908  0.27967926  1.0
  Ti  Ti447  1  0.18085555  0.89579908  0.27967926  1.0
  Ti  Ti448  1  0.29196666  0.02079908  0.27967926  1.0
  Ti  Ti449  1  0.29196666  0.14579908  0.27967926  1.0
  Ti  Ti450  1  0.29196666  0.27079908  0.27967926  1.0
  Ti  Ti451  1  0.29196666  0.39579908  0.27967926  1.0
  Ti  Ti452  1  0.29196666  0.52079908  0.27967926  1.0
  Ti  Ti453  1  0.29196666  0.64579908  0.27967926  1.0
  Ti  Ti454  1  0.29196666  0.77079908  0.27967926  1.0
  Ti  Ti455  1  0.29196666  0.89579908  0.27967926  1.0
  Ti  Ti456  1  0.40307778  0.02079908  0.27967926  1.0
  Ti  Ti457  1  0.40307778  0.14579908  0.27967926  1.0
  Ti  Ti458  1  0.40307778  0.27079908  0.27967926  1.0
  Ti  Ti459  1  0.40307778  0.39579908  0.27967926  1.0
  Ti  Ti460  1  0.40307778  0.52079908  0.27967926  1.0
  Ti  Ti461  1  0.40307778  0.64579908  0.27967926  1.0
  Ti  Ti462  1  0.40307778  0.77079908  0.27967926  1.0
  Ti  Ti463  1  0.40307778  0.89579908  0.27967926  1.0
  Ti  Ti464  1  0.51418889  0.02079908  0.27967926  1.0
  Ti  Ti465  1  0.51418889  0.14579908  0.27967926  1.0
  Ti  Ti466  1  0.51418889  0.27079908  0.27967926  1.0
  Ti  Ti467  1  0.51418889  0.39579908  0.27967926  1.0
  Ti  Ti468  1  0.51418889  0.52079908  0.27967926  1.0
  Ti  Ti469  1  0.51418889  0.64579908  0.27967926  1.0
  Ti  Ti470  1  0.51418889  0.77079908  0.27967926  1.0
  Ti  Ti471  1  0.51418889  0.89579908  0.27967926  1.0
  Ti  Ti472  1  0.62530000  0.02079908  0.27967926  1.0
  Ti  Ti473  1  0.62530000  0.14579908  0.27967926  1.0
  Ti  Ti474  1  0.62530000  0.27079908  0.27967926  1.0
  Ti  Ti475  1  0.62530000  0.39579908  0.27967926  1.0
  Ti  Ti476  1  0.62530000  0.52079908  0.27967926  1.0
  Ti  Ti477  1  0.62530000  0.64579908  0.27967926  1.0
  Ti  Ti478  1  0.62530000  0.77079908  0.27967926  1.0
  Ti  Ti479  1  0.62530000  0.89579908  0.27967926  1.0
  Ti  Ti480  1  0.73641111  0.02079908  0.27967926  1.0
  Ti  Ti481  1  0.73641111  0.14579908  0.27967926  1.0
  Ti  Ti482  1  0.73641111  0.27079908  0.27967926  1.0
  Ti  Ti483  1  0.73641111  0.39579908  0.27967926  1.0
  Ti  Ti484  1  0.73641111  0.52079908  0.27967926  1.0
  Ti  Ti485  1  0.73641111  0.64579908  0.27967926  1.0
  Ti  Ti486  1  0.73641111  0.77079908  0.27967926  1.0
  Ti  Ti487  1  0.73641111  0.89579908  0.27967926  1.0
  Ti  Ti488  1  0.84752222  0.02079908  0.27967926  1.0
  Ti  Ti489  1  0.84752222  0.14579908  0.27967926  1.0
  Ti  Ti490  1  0.84752222  0.27079908  0.27967926  1.0
  Ti  Ti491  1  0.84752222  0.39579908  0.27967926  1.0
  Ti  Ti492  1  0.84752222  0.52079908  0.27967926  1.0
  Ti  Ti493  1  0.84752222  0.64579908  0.27967926  1.0
  Ti  Ti494  1  0.84752222  0.77079908  0.27967926  1.0
  Ti  Ti495  1  0.84752222  0.89579908  0.27967926  1.0
  Ti  Ti496  1  0.95863333  0.02079908  0.27967926  1.0
  Ti  Ti497  1  0.95863333  0.14579908  0.27967926  1.0
  Ti  Ti498  1  0.95863333  0.27079908  0.27967926  1.0
  Ti  Ti499  1  0.95863333  0.39579908  0.27967926  1.0
  Ti  Ti500  1  0.95863333  0.52079908  0.27967926  1.0
  Ti  Ti501  1  0.95863333  0.64579908  0.27967926  1.0
  Ti  Ti502  1  0.95863333  0.77079908  0.27967926  1.0
  Ti  Ti503  1  0.95863333  0.89579908  0.27967926  1.0
  Ti  Ti504  1  0.04328942  0.02079908  0.23206021  1.0
  Ti  Ti505  1  0.04328942  0.14579908  0.23206021  1.0
  Ti  Ti506  1  0.04328942  0.27079908  0.23206021  1.0
  Ti  Ti507  1  0.04328942  0.39579908  0.23206021  1.0
  Ti  Ti508  1  0.04328942  0.52079908  0.23206021  1.0
  Ti  Ti509  1  0.04328942  0.64579908  0.23206021  1.0
  Ti  Ti510  1  0.04328942  0.77079908  0.23206021  1.0
  Ti  Ti511  1  0.04328942  0.89579908  0.23206021  1.0
  Ti  Ti512  1  0.15440053  0.02079908  0.23206021  1.0
  Ti  Ti513  1  0.15440053  0.14579908  0.23206021  1.0
  Ti  Ti514  1  0.15440053  0.27079908  0.23206021  1.0
  Ti  Ti515  1  0.15440053  0.39579908  0.23206021  1.0
  Ti  Ti516  1  0.15440053  0.52079908  0.23206021  1.0
  Ti  Ti517  1  0.15440053  0.64579908  0.23206021  1.0
  Ti  Ti518  1  0.15440053  0.77079908  0.23206021  1.0
  Ti  Ti519  1  0.15440053  0.89579908  0.23206021  1.0
  Ti  Ti520  1  0.26551164  0.02079908  0.23206021  1.0
  Ti  Ti521  1  0.26551164  0.14579908  0.23206021  1.0
  Ti  Ti522  1  0.26551164  0.27079908  0.23206021  1.0
  Ti  Ti523  1  0.26551164  0.39579908  0.23206021  1.0
  Ti  Ti524  1  0.26551164  0.52079908  0.23206021  1.0
  Ti  Ti525  1  0.26551164  0.64579908  0.23206021  1.0
  Ti  Ti526  1  0.26551164  0.77079908  0.23206021  1.0
  Ti  Ti527  1  0.26551164  0.89579908  0.23206021  1.0
  Ti  Ti528  1  0.37662275  0.02079908  0.23206021  1.0
  Ti  Ti529  1  0.37662275  0.14579908  0.23206021  1.0
  Ti  Ti530  1  0.37662275  0.27079908  0.23206021  1.0
  Ti  Ti531  1  0.37662275  0.39579908  0.23206021  1.0
  Ti  Ti532  1  0.37662275  0.52079908  0.23206021  1.0
  Ti  Ti533  1  0.37662275  0.64579908  0.23206021  1.0
  Ti  Ti534  1  0.37662275  0.77079908  0.23206021  1.0
  Ti  Ti535  1  0.37662275  0.89579908  0.23206021  1.0
  Ti  Ti536  1  0.48773386  0.02079908  0.23206021  1.0
  Ti  Ti537  1  0.48773386  0.14579908  0.23206021  1.0
  Ti  Ti538  1  0.48773386  0.27079908  0.23206021  1.0
  Ti  Ti539  1  0.48773386  0.39579908  0.23206021  1.0
  Ti  Ti540  1  0.48773386  0.52079908  0.23206021  1.0
  Ti  Ti541  1  0.48773386  0.64579908  0.23206021  1.0
  Ti  Ti542  1  0.48773386  0.77079908  0.23206021  1.0
  Ti  Ti543  1  0.48773386  0.89579908  0.23206021  1.0
  Ti  Ti544  1  0.59884497  0.02079908  0.23206021  1.0
  Ti  Ti545  1  0.59884497  0.14579908  0.23206021  1.0
  Ti  Ti546  1  0.59884497  0.27079908  0.23206021  1.0
  Ti  Ti547  1  0.59884497  0.39579908  0.23206021  1.0
  Ti  Ti548  1  0.59884497  0.52079908  0.23206021  1.0
  Ti  Ti549  1  0.59884497  0.64579908  0.23206021  1.0
  Ti  Ti550  1  0.59884497  0.77079908  0.23206021  1.0
  Ti  Ti551  1  0.59884497  0.89579908  0.23206021  1.0
  Ti  Ti552  1  0.70995608  0.02079908  0.23206021  1.0
  Ti  Ti553  1  0.70995608  0.14579908  0.23206021  1.0
  Ti  Ti554  1  0.70995608  0.27079908  0.23206021  1.0
  Ti  Ti555  1  0.70995608  0.39579908  0.23206021  1.0
  Ti  Ti556  1  0.70995608  0.52079908  0.23206021  1.0
  Ti  Ti557  1  0.70995608  0.64579908  0.23206021  1.0
  Ti  Ti558  1  0.70995608  0.77079908  0.23206021  1.0
  Ti  Ti559  1  0.70995608  0.89579908  0.23206021  1.0
  Ti  Ti560  1  0.82106719  0.02079908  0.23206021  1.0
  Ti  Ti561  1  0.82106719  0.14579908  0.23206021  1.0
  Ti  Ti562  1  0.82106719  0.27079908  0.23206021  1.0
  Ti  Ti563  1  0.82106719  0.39579908  0.23206021  1.0
  Ti  Ti564  1  0.82106719  0.52079908  0.23206021  1.0
  Ti  Ti565  1  0.82106719  0.64579908  0.23206021  1.0
  Ti  Ti566  1  0.82106719  0.77079908  0.23206021  1.0
  Ti  Ti567  1  0.82106719  0.89579908  0.23206021  1.0
  Ti  Ti568  1  0.93217830  0.02079908  0.23206021  1.0
  Ti  Ti569  1  0.93217830  0.14579908  0.23206021  1.0
  Ti  Ti570  1  0.93217830  0.27079908  0.23206021  1.0
  Ti  Ti571  1  0.93217830  0.39579908  0.23206021  1.0
  Ti  Ti572  1  0.93217830  0.52079908  0.23206021  1.0
  Ti  Ti573  1  0.93217830  0.64579908  0.23206021  1.0
  Ti  Ti574  1  0.93217830  0.77079908  0.23206021  1.0
  Ti  Ti575  1  0.93217830  0.89579908  0.23206021  1.0
  Ti  Ti576  1  0.09619947  0.02079908  0.32729831  1.0
  Ti  Ti577  1  0.09619947  0.14579908  0.32729831  1.0
  Ti  Ti578  1  0.09619947  0.27079908  0.32729831  1.0
  Ti  Ti579  1  0.09619947  0.39579908  0.32729831  1.0
  Ti  Ti580  1  0.09619947  0.52079908  0.32729831  1.0
  Ti  Ti581  1  0.09619947  0.64579908  0.32729831  1.0
  Ti  Ti582  1  0.09619947  0.77079908  0.32729831  1.0
  Ti  Ti583  1  0.09619947  0.89579908  0.32729831  1.0
  Ti  Ti584  1  0.20731058  0.02079908  0.32729831  1.0
  Ti  Ti585  1  0.20731058  0.14579908  0.32729831  1.0
  Ti  Ti586  1  0.20731058  0.27079908  0.32729831  1.0
  Ti  Ti587  1  0.20731058  0.39579908  0.32729831  1.0
  Ti  Ti588  1  0.20731058  0.52079908  0.32729831  1.0
  Ti  Ti589  1  0.20731058  0.64579908  0.32729831  1.0
  Ti  Ti590  1  0.20731058  0.77079908  0.32729831  1.0
  Ti  Ti591  1  0.20731058  0.89579908  0.32729831  1.0
  Ti  Ti592  1  0.31842169  0.02079908  0.32729831  1.0
  Ti  Ti593  1  0.31842169  0.14579908  0.32729831  1.0
  Ti  Ti594  1  0.31842169  0.27079908  0.32729831  1.0
  Ti  Ti595  1  0.31842169  0.39579908  0.32729831  1.0
  Ti  Ti596  1  0.31842169  0.52079908  0.32729831  1.0
  Ti  Ti597  1  0.31842169  0.64579908  0.32729831  1.0
  Ti  Ti598  1  0.31842169  0.77079908  0.32729831  1.0
  Ti  Ti599  1  0.31842169  0.89579908  0.32729831  1.0
  Ti  Ti600  1  0.42953280  0.02079908  0.32729831  1.0
  Ti  Ti601  1  0.42953280  0.14579908  0.32729831  1.0
  Ti  Ti602  1  0.42953280  0.27079908  0.32729831  1.0
  Ti  Ti603  1  0.42953280  0.39579908  0.32729831  1.0
  Ti  Ti604  1  0.42953280  0.52079908  0.32729831  1.0
  Ti  Ti605  1  0.42953280  0.64579908  0.32729831  1.0
  Ti  Ti606  1  0.42953280  0.77079908  0.32729831  1.0
  Ti  Ti607  1  0.42953280  0.89579908  0.32729831  1.0
  Ti  Ti608  1  0.54064391  0.02079908  0.32729831  1.0
  Ti  Ti609  1  0.54064391  0.14579908  0.32729831  1.0
  Ti  Ti610  1  0.54064391  0.27079908  0.32729831  1.0
  Ti  Ti611  1  0.54064391  0.39579908  0.32729831  1.0
  Ti  Ti612  1  0.54064391  0.52079908  0.32729831  1.0
  Ti  Ti613  1  0.54064391  0.64579908  0.32729831  1.0
  Ti  Ti614  1  0.54064391  0.77079908  0.32729831  1.0
  Ti  Ti615  1  0.54064391  0.89579908  0.32729831  1.0
  Ti  Ti616  1  0.65175502  0.02079908  0.32729831  1.0
  Ti  Ti617  1  0.65175502  0.14579908  0.32729831  1.0
  Ti  Ti618  1  0.65175502  0.27079908  0.32729831  1.0
  Ti  Ti619  1  0.65175502  0.39579908  0.32729831  1.0
  Ti  Ti620  1  0.65175502  0.52079908  0.32729831  1.0
  Ti  Ti621  1  0.65175502  0.64579908  0.32729831  1.0
  Ti  Ti622  1  0.65175502  0.77079908  0.32729831  1.0
  Ti  Ti623  1  0.65175502  0.89579908  0.32729831  1.0
  Ti  Ti624  1  0.76286613  0.02079908  0.32729831  1.0
  Ti  Ti625  1  0.76286613  0.14579908  0.32729831  1.0
  Ti  Ti626  1  0.76286613  0.27079908  0.32729831  1.0
  Ti  Ti627  1  0.76286613  0.39579908  0.32729831  1.0
  Ti  Ti628  1  0.76286613  0.52079908  0.32729831  1.0
  Ti  Ti629  1  0.76286613  0.64579908  0.32729831  1.0
  Ti  Ti630  1  0.76286613  0.77079908  0.32729831  1.0
  Ti  Ti631  1  0.76286613  0.89579908  0.32729831  1.0
  Ti  Ti632  1  0.87397725  0.02079908  0.32729831  1.0
  Ti  Ti633  1  0.87397725  0.14579908  0.32729831  1.0
  Ti  Ti634  1  0.87397725  0.27079908  0.32729831  1.0
  Ti  Ti635  1  0.87397725  0.39579908  0.32729831  1.0
  Ti  Ti636  1  0.87397725  0.52079908  0.32729831  1.0
  Ti  Ti637  1  0.87397725  0.64579908  0.32729831  1.0
  Ti  Ti638  1  0.87397725  0.77079908  0.32729831  1.0
  Ti  Ti639  1  0.87397725  0.89579908  0.32729831  1.0
  Ti  Ti640  1  0.98508836  0.02079908  0.32729831  1.0
  Ti  Ti641  1  0.98508836  0.14579908  0.32729831  1.0
  Ti  Ti642  1  0.98508836  0.27079908  0.32729831  1.0
  Ti  Ti643  1  0.98508836  0.39579908  0.32729831  1.0
  Ti  Ti644  1  0.98508836  0.52079908  0.32729831  1.0
  Ti  Ti645  1  0.98508836  0.64579908  0.32729831  1.0
  Ti  Ti646  1  0.98508836  0.77079908  0.32729831  1.0
  Ti  Ti647  1  0.98508836  0.89579908  0.32729831  1.0
  Ti  Ti648  1  0.09583745  0.10420092  0.23375194  1.0
  Ti  Ti649  1  0.09583745  0.22920092  0.23375194  1.0
  Ti  Ti650  1  0.09583745  0.35420092  0.23375194  1.0
  Ti  Ti651  1  0.09583745  0.47920092  0.23375194  1.0
  Ti  Ti652  1  0.09583745  0.60420092  0.23375194  1.0
  Ti  Ti653  1  0.09583745  0.72920092  0.23375194  1.0
  Ti  Ti654  1  0.09583745  0.85420092  0.23375194  1.0
  Ti  Ti655  1  0.09583745  0.97920092  0.23375194  1.0
  Ti  Ti656  1  0.20694856  0.10420092  0.23375194  1.0
  Ti  Ti657  1  0.20694856  0.22920092  0.23375194  1.0
  Ti  Ti658  1  0.20694856  0.35420092  0.23375194  1.0
  Ti  Ti659  1  0.20694856  0.47920092  0.23375194  1.0
  Ti  Ti660  1  0.20694856  0.60420092  0.23375194  1.0
  Ti  Ti661  1  0.20694856  0.72920092  0.23375194  1.0
  Ti  Ti662  1  0.20694856  0.85420092  0.23375194  1.0
  Ti  Ti663  1  0.20694856  0.97920092  0.23375194  1.0
  Ti  Ti664  1  0.31805967  0.10420092  0.23375194  1.0
  Ti  Ti665  1  0.31805967  0.22920092  0.23375194  1.0
  Ti  Ti666  1  0.31805967  0.35420092  0.23375194  1.0
  Ti  Ti667  1  0.31805967  0.47920092  0.23375194  1.0
  Ti  Ti668  1  0.31805967  0.60420092  0.23375194  1.0
  Ti  Ti669  1  0.31805967  0.72920092  0.23375194  1.0
  Ti  Ti670  1  0.31805967  0.85420092  0.23375194  1.0
  Ti  Ti671  1  0.31805967  0.97920092  0.23375194  1.0
  Ti  Ti672  1  0.42917078  0.10420092  0.23375194  1.0
  Ti  Ti673  1  0.42917078  0.22920092  0.23375194  1.0
  Ti  Ti674  1  0.42917078  0.35420092  0.23375194  1.0
  Ti  Ti675  1  0.42917078  0.47920092  0.23375194  1.0
  Ti  Ti676  1  0.42917078  0.60420092  0.23375194  1.0
  Ti  Ti677  1  0.42917078  0.72920092  0.23375194  1.0
  Ti  Ti678  1  0.42917078  0.85420092  0.23375194  1.0
  Ti  Ti679  1  0.42917078  0.97920092  0.23375194  1.0
  Ti  Ti680  1  0.54028189  0.10420092  0.23375194  1.0
  Ti  Ti681  1  0.54028189  0.22920092  0.23375194  1.0
  Ti  Ti682  1  0.54028189  0.35420092  0.23375194  1.0
  Ti  Ti683  1  0.54028189  0.47920092  0.23375194  1.0
  Ti  Ti684  1  0.54028189  0.60420092  0.23375194  1.0
  Ti  Ti685  1  0.54028189  0.72920092  0.23375194  1.0
  Ti  Ti686  1  0.54028189  0.85420092  0.23375194  1.0
  Ti  Ti687  1  0.54028189  0.97920092  0.23375194  1.0
  Ti  Ti688  1  0.65139300  0.10420092  0.23375194  1.0
  Ti  Ti689  1  0.65139300  0.22920092  0.23375194  1.0
  Ti  Ti690  1  0.65139300  0.35420092  0.23375194  1.0
  Ti  Ti691  1  0.65139300  0.47920092  0.23375194  1.0
  Ti  Ti692  1  0.65139300  0.60420092  0.23375194  1.0
  Ti  Ti693  1  0.65139300  0.72920092  0.23375194  1.0
  Ti  Ti694  1  0.65139300  0.85420092  0.23375194  1.0
  Ti  Ti695  1  0.65139300  0.97920092  0.23375194  1.0
  Ti  Ti696  1  0.76250411  0.10420092  0.23375194  1.0
  Ti  Ti697  1  0.76250411  0.22920092  0.23375194  1.0
  Ti  Ti698  1  0.76250411  0.35420092  0.23375194  1.0
  Ti  Ti699  1  0.76250411  0.47920092  0.23375194  1.0
  Ti  Ti700  1  0.76250411  0.60420092  0.23375194  1.0
  Ti  Ti701  1  0.76250411  0.72920092  0.23375194  1.0
  Ti  Ti702  1  0.76250411  0.85420092  0.23375194  1.0
  Ti  Ti703  1  0.76250411  0.97920092  0.23375194  1.0
  Ti  Ti704  1  0.87361522  0.10420092  0.23375194  1.0
  Ti  Ti705  1  0.87361522  0.22920092  0.23375194  1.0
  Ti  Ti706  1  0.87361522  0.35420092  0.23375194  1.0
  Ti  Ti707  1  0.87361522  0.47920092  0.23375194  1.0
  Ti  Ti708  1  0.87361522  0.60420092  0.23375194  1.0
  Ti  Ti709  1  0.87361522  0.72920092  0.23375194  1.0
  Ti  Ti710  1  0.87361522  0.85420092  0.23375194  1.0
  Ti  Ti711  1  0.87361522  0.97920092  0.23375194  1.0
  Ti  Ti712  1  0.98472633  0.10420092  0.23375194  1.0
  Ti  Ti713  1  0.98472633  0.22920092  0.23375194  1.0
  Ti  Ti714  1  0.98472633  0.35420092  0.23375194  1.0
  Ti  Ti715  1  0.98472633  0.47920092  0.23375194  1.0
  Ti  Ti716  1  0.98472633  0.60420092  0.23375194  1.0
  Ti  Ti717  1  0.98472633  0.72920092  0.23375194  1.0
  Ti  Ti718  1  0.98472633  0.85420092  0.23375194  1.0
  Ti  Ti719  1  0.98472633  0.97920092  0.23375194  1.0
  Ti  Ti720  1  0.03763639  0.10420092  0.32899004  1.0
  Ti  Ti721  1  0.03763639  0.22920092  0.32899004  1.0
  Ti  Ti722  1  0.03763639  0.35420092  0.32899004  1.0
  Ti  Ti723  1  0.03763639  0.47920092  0.32899004  1.0
  Ti  Ti724  1  0.03763639  0.60420092  0.32899004  1.0
  Ti  Ti725  1  0.03763639  0.72920092  0.32899004  1.0
  Ti  Ti726  1  0.03763639  0.85420092  0.32899004  1.0
  Ti  Ti727  1  0.03763639  0.97920092  0.32899004  1.0
  Ti  Ti728  1  0.14874750  0.10420092  0.32899004  1.0
  Ti  Ti729  1  0.14874750  0.22920092  0.32899004  1.0
  Ti  Ti730  1  0.14874750  0.35420092  0.32899004  1.0
  Ti  Ti731  1  0.14874750  0.47920092  0.32899004  1.0
  Ti  Ti732  1  0.14874750  0.60420092  0.32899004  1.0
  Ti  Ti733  1  0.14874750  0.72920092  0.32899004  1.0
  Ti  Ti734  1  0.14874750  0.85420092  0.32899004  1.0
  Ti  Ti735  1  0.14874750  0.97920092  0.32899004  1.0
  Ti  Ti736  1  0.25985861  0.10420092  0.32899004  1.0
  Ti  Ti737  1  0.25985861  0.22920092  0.32899004  1.0
  Ti  Ti738  1  0.25985861  0.35420092  0.32899004  1.0
  Ti  Ti739  1  0.25985861  0.47920092  0.32899004  1.0
  Ti  Ti740  1  0.25985861  0.60420092  0.32899004  1.0
  Ti  Ti741  1  0.25985861  0.72920092  0.32899004  1.0
  Ti  Ti742  1  0.25985861  0.85420092  0.32899004  1.0
  Ti  Ti743  1  0.25985861  0.97920092  0.32899004  1.0
  Ti  Ti744  1  0.37096972  0.10420092  0.32899004  1.0
  Ti  Ti745  1  0.37096972  0.22920092  0.32899004  1.0
  Ti  Ti746  1  0.37096972  0.35420092  0.32899004  1.0
  Ti  Ti747  1  0.37096972  0.47920092  0.32899004  1.0
  Ti  Ti748  1  0.37096972  0.60420092  0.32899004  1.0
  Ti  Ti749  1  0.37096972  0.72920092  0.32899004  1.0
  Ti  Ti750  1  0.37096972  0.85420092  0.32899004  1.0
  Ti  Ti751  1  0.37096972  0.97920092  0.32899004  1.0
  Ti  Ti752  1  0.48208083  0.10420092  0.32899004  1.0
  Ti  Ti753  1  0.48208083  0.22920092  0.32899004  1.0
  Ti  Ti754  1  0.48208083  0.35420092  0.32899004  1.0
  Ti  Ti755  1  0.48208083  0.47920092  0.32899004  1.0
  Ti  Ti756  1  0.48208083  0.60420092  0.32899004  1.0
  Ti  Ti757  1  0.48208083  0.72920092  0.32899004  1.0
  Ti  Ti758  1  0.48208083  0.85420092  0.32899004  1.0
  Ti  Ti759  1  0.48208083  0.97920092  0.32899004  1.0
  Ti  Ti760  1  0.59319194  0.10420092  0.32899004  1.0
  Ti  Ti761  1  0.59319194  0.22920092  0.32899004  1.0
  Ti  Ti762  1  0.59319194  0.35420092  0.32899004  1.0
  Ti  Ti763  1  0.59319194  0.47920092  0.32899004  1.0
  Ti  Ti764  1  0.59319194  0.60420092  0.32899004  1.0
  Ti  Ti765  1  0.59319194  0.72920092  0.32899004  1.0
  Ti  Ti766  1  0.59319194  0.85420092  0.32899004  1.0
  Ti  Ti767  1  0.59319194  0.97920092  0.32899004  1.0
  Ti  Ti768  1  0.70430305  0.10420092  0.32899004  1.0
  Ti  Ti769  1  0.70430305  0.22920092  0.32899004  1.0
  Ti  Ti770  1  0.70430305  0.35420092  0.32899004  1.0
  Ti  Ti771  1  0.70430305  0.47920092  0.32899004  1.0
  Ti  Ti772  1  0.70430305  0.60420092  0.32899004  1.0
  Ti  Ti773  1  0.70430305  0.72920092  0.32899004  1.0
  Ti  Ti774  1  0.70430305  0.85420092  0.32899004  1.0
  Ti  Ti775  1  0.70430305  0.97920092  0.32899004  1.0
  Ti  Ti776  1  0.81541416  0.10420092  0.32899004  1.0
  Ti  Ti777  1  0.81541416  0.22920092  0.32899004  1.0
  Ti  Ti778  1  0.81541416  0.35420092  0.32899004  1.0
  Ti  Ti779  1  0.81541416  0.47920092  0.32899004  1.0
  Ti  Ti780  1  0.81541416  0.60420092  0.32899004  1.0
  Ti  Ti781  1  0.81541416  0.72920092  0.32899004  1.0
  Ti  Ti782  1  0.81541416  0.85420092  0.32899004  1.0
  Ti  Ti783  1  0.81541416  0.97920092  0.32899004  1.0
  Ti  Ti784  1  0.92652528  0.10420092  0.32899004  1.0
  Ti  Ti785  1  0.92652528  0.22920092  0.32899004  1.0
  Ti  Ti786  1  0.92652528  0.35420092  0.32899004  1.0
  Ti  Ti787  1  0.92652528  0.47920092  0.32899004  1.0
  Ti  Ti788  1  0.92652528  0.60420092  0.32899004  1.0
  Ti  Ti789  1  0.92652528  0.72920092  0.32899004  1.0
  Ti  Ti790  1  0.92652528  0.85420092  0.32899004  1.0
  Ti  Ti791  1  0.92652528  0.97920092  0.32899004  1.0
  Ti  Ti792  1  0.01118136  0.10420092  0.28137099  1.0
  Ti  Ti793  1  0.01118136  0.22920092  0.28137099  1.0
  Ti  Ti794  1  0.01118136  0.35420092  0.28137099  1.0
  Ti  Ti795  1  0.01118136  0.47920092  0.28137099  1.0
  Ti  Ti796  1  0.01118136  0.60420092  0.28137099  1.0
  Ti  Ti797  1  0.01118136  0.72920092  0.28137099  1.0
  Ti  Ti798  1  0.01118136  0.85420092  0.28137099  1.0
  Ti  Ti799  1  0.01118136  0.97920092  0.28137099  1.0
  Ti  Ti800  1  0.12229247  0.10420092  0.28137099  1.0
  Ti  Ti801  1  0.12229247  0.22920092  0.28137099  1.0
  Ti  Ti802  1  0.12229247  0.35420092  0.28137099  1.0
  Ti  Ti803  1  0.12229247  0.47920092  0.28137099  1.0
  Ti  Ti804  1  0.12229247  0.60420092  0.28137099  1.0
  Ti  Ti805  1  0.12229247  0.72920092  0.28137099  1.0
  Ti  Ti806  1  0.12229247  0.85420092  0.28137099  1.0
  Ti  Ti807  1  0.12229247  0.97920092  0.28137099  1.0
  Ti  Ti808  1  0.23340358  0.10420092  0.28137099  1.0
  Ti  Ti809  1  0.23340358  0.22920092  0.28137099  1.0
  Ti  Ti810  1  0.23340358  0.35420092  0.28137099  1.0
  Ti  Ti811  1  0.23340358  0.47920092  0.28137099  1.0
  Ti  Ti812  1  0.23340358  0.60420092  0.28137099  1.0
  Ti  Ti813  1  0.23340358  0.72920092  0.28137099  1.0
  Ti  Ti814  1  0.23340358  0.85420092  0.28137099  1.0
  Ti  Ti815  1  0.23340358  0.97920092  0.28137099  1.0
  Ti  Ti816  1  0.34451469  0.10420092  0.28137099  1.0
  Ti  Ti817  1  0.34451469  0.22920092  0.28137099  1.0
  Ti  Ti818  1  0.34451469  0.35420092  0.28137099  1.0
  Ti  Ti819  1  0.34451469  0.47920092  0.28137099  1.0
  Ti  Ti820  1  0.34451469  0.60420092  0.28137099  1.0
  Ti  Ti821  1  0.34451469  0.72920092  0.28137099  1.0
  Ti  Ti822  1  0.34451469  0.85420092  0.28137099  1.0
  Ti  Ti823  1  0.34451469  0.97920092  0.28137099  1.0
  Ti  Ti824  1  0.45562580  0.10420092  0.28137099  1.0
  Ti  Ti825  1  0.45562580  0.22920092  0.28137099  1.0
  Ti  Ti826  1  0.45562580  0.35420092  0.28137099  1.0
  Ti  Ti827  1  0.45562580  0.47920092  0.28137099  1.0
  Ti  Ti828  1  0.45562580  0.60420092  0.28137099  1.0
  Ti  Ti829  1  0.45562580  0.72920092  0.28137099  1.0
  Ti  Ti830  1  0.45562580  0.85420092  0.28137099  1.0
  Ti  Ti831  1  0.45562580  0.97920092  0.28137099  1.0
  Ti  Ti832  1  0.56673692  0.10420092  0.28137099  1.0
  Ti  Ti833  1  0.56673692  0.22920092  0.28137099  1.0
  Ti  Ti834  1  0.56673692  0.35420092  0.28137099  1.0
  Ti  Ti835  1  0.56673692  0.47920092  0.28137099  1.0
  Ti  Ti836  1  0.56673692  0.60420092  0.28137099  1.0
  Ti  Ti837  1  0.56673692  0.72920092  0.28137099  1.0
  Ti  Ti838  1  0.56673692  0.85420092  0.28137099  1.0
  Ti  Ti839  1  0.56673692  0.97920092  0.28137099  1.0
  Ti  Ti840  1  0.67784803  0.10420092  0.28137099  1.0
  Ti  Ti841  1  0.67784803  0.22920092  0.28137099  1.0
  Ti  Ti842  1  0.67784803  0.35420092  0.28137099  1.0
  Ti  Ti843  1  0.67784803  0.47920092  0.28137099  1.0
  Ti  Ti844  1  0.67784803  0.60420092  0.28137099  1.0
  Ti  Ti845  1  0.67784803  0.72920092  0.28137099  1.0
  Ti  Ti846  1  0.67784803  0.85420092  0.28137099  1.0
  Ti  Ti847  1  0.67784803  0.97920092  0.28137099  1.0
  Ti  Ti848  1  0.78895914  0.10420092  0.28137099  1.0
  Ti  Ti849  1  0.78895914  0.22920092  0.28137099  1.0
  Ti  Ti850  1  0.78895914  0.35420092  0.28137099  1.0
  Ti  Ti851  1  0.78895914  0.47920092  0.28137099  1.0
  Ti  Ti852  1  0.78895914  0.60420092  0.28137099  1.0
  Ti  Ti853  1  0.78895914  0.72920092  0.28137099  1.0
  Ti  Ti854  1  0.78895914  0.85420092  0.28137099  1.0
  Ti  Ti855  1  0.78895914  0.97920092  0.28137099  1.0
  Ti  Ti856  1  0.90007025  0.10420092  0.28137099  1.0
  Ti  Ti857  1  0.90007025  0.22920092  0.28137099  1.0
  Ti  Ti858  1  0.90007025  0.35420092  0.28137099  1.0
  Ti  Ti859  1  0.90007025  0.47920092  0.28137099  1.0
  Ti  Ti860  1  0.90007025  0.60420092  0.28137099  1.0
  Ti  Ti861  1  0.90007025  0.72920092  0.28137099  1.0
  Ti  Ti862  1  0.90007025  0.85420092  0.28137099  1.0
  Ti  Ti863  1  0.90007025  0.97920092  0.28137099  1.0
  Ti  Ti864  1  0.08032645  0.04170092  0.39872688  1.0
  Ti  Ti865  1  0.08032645  0.16670092  0.39872688  1.0
  Ti  Ti866  1  0.08032645  0.29170092  0.39872688  1.0
  Ti  Ti867  1  0.08032645  0.41670092  0.39872688  1.0
  Ti  Ti868  1  0.08032645  0.54170092  0.39872688  1.0
  Ti  Ti869  1  0.08032645  0.66670092  0.39872688  1.0
  Ti  Ti870  1  0.08032645  0.79170092  0.39872688  1.0
  Ti  Ti871  1  0.08032645  0.91670092  0.39872688  1.0
  Ti  Ti872  1  0.19143756  0.04170092  0.39872688  1.0
  Ti  Ti873  1  0.19143756  0.16670092  0.39872688  1.0
  Ti  Ti874  1  0.19143756  0.29170092  0.39872688  1.0
  Ti  Ti875  1  0.19143756  0.41670092  0.39872688  1.0
  Ti  Ti876  1  0.19143756  0.54170092  0.39872688  1.0
  Ti  Ti877  1  0.19143756  0.66670092  0.39872688  1.0
  Ti  Ti878  1  0.19143756  0.79170092  0.39872688  1.0
  Ti  Ti879  1  0.19143756  0.91670092  0.39872688  1.0
  Ti  Ti880  1  0.30254867  0.04170092  0.39872688  1.0
  Ti  Ti881  1  0.30254867  0.16670092  0.39872688  1.0
  Ti  Ti882  1  0.30254867  0.29170092  0.39872688  1.0
  Ti  Ti883  1  0.30254867  0.41670092  0.39872688  1.0
  Ti  Ti884  1  0.30254867  0.54170092  0.39872688  1.0
  Ti  Ti885  1  0.30254867  0.66670092  0.39872688  1.0
  Ti  Ti886  1  0.30254867  0.79170092  0.39872688  1.0
  Ti  Ti887  1  0.30254867  0.91670092  0.39872688  1.0
  Ti  Ti888  1  0.41365979  0.04170092  0.39872688  1.0
  Ti  Ti889  1  0.41365979  0.16670092  0.39872688  1.0
  Ti  Ti890  1  0.41365979  0.29170092  0.39872688  1.0
  Ti  Ti891  1  0.41365979  0.41670092  0.39872688  1.0
  Ti  Ti892  1  0.41365979  0.54170092  0.39872688  1.0
  Ti  Ti893  1  0.41365979  0.66670092  0.39872688  1.0
  Ti  Ti894  1  0.41365979  0.79170092  0.39872688  1.0
  Ti  Ti895  1  0.41365979  0.91670092  0.39872688  1.0
  Ti  Ti896  1  0.52477090  0.04170092  0.39872688  1.0
  Ti  Ti897  1  0.52477090  0.16670092  0.39872688  1.0
  Ti  Ti898  1  0.52477090  0.29170092  0.39872688  1.0
  Ti  Ti899  1  0.52477090  0.41670092  0.39872688  1.0
  Ti  Ti900  1  0.52477090  0.54170092  0.39872688  1.0
  Ti  Ti901  1  0.52477090  0.66670092  0.39872688  1.0
  Ti  Ti902  1  0.52477090  0.79170092  0.39872688  1.0
  Ti  Ti903  1  0.52477090  0.91670092  0.39872688  1.0
  Ti  Ti904  1  0.63588201  0.04170092  0.39872688  1.0
  Ti  Ti905  1  0.63588201  0.16670092  0.39872688  1.0
  Ti  Ti906  1  0.63588201  0.29170092  0.39872688  1.0
  Ti  Ti907  1  0.63588201  0.41670092  0.39872688  1.0
  Ti  Ti908  1  0.63588201  0.54170092  0.39872688  1.0
  Ti  Ti909  1  0.63588201  0.66670092  0.39872688  1.0
  Ti  Ti910  1  0.63588201  0.79170092  0.39872688  1.0
  Ti  Ti911  1  0.63588201  0.91670092  0.39872688  1.0
  Ti  Ti912  1  0.74699312  0.04170092  0.39872688  1.0
  Ti  Ti913  1  0.74699312  0.16670092  0.39872688  1.0
  Ti  Ti914  1  0.74699312  0.29170092  0.39872688  1.0
  Ti  Ti915  1  0.74699312  0.41670092  0.39872688  1.0
  Ti  Ti916  1  0.74699312  0.54170092  0.39872688  1.0
  Ti  Ti917  1  0.74699312  0.66670092  0.39872688  1.0
  Ti  Ti918  1  0.74699312  0.79170092  0.39872688  1.0
  Ti  Ti919  1  0.74699312  0.91670092  0.39872688  1.0
  Ti  Ti920  1  0.85810423  0.04170092  0.39872688  1.0
  Ti  Ti921  1  0.85810423  0.16670092  0.39872688  1.0
  Ti  Ti922  1  0.85810423  0.29170092  0.39872688  1.0
  Ti  Ti923  1  0.85810423  0.41670092  0.39872688  1.0
  Ti  Ti924  1  0.85810423  0.54170092  0.39872688  1.0
  Ti  Ti925  1  0.85810423  0.66670092  0.39872688  1.0
  Ti  Ti926  1  0.85810423  0.79170092  0.39872688  1.0
  Ti  Ti927  1  0.85810423  0.91670092  0.39872688  1.0
  Ti  Ti928  1  0.96921534  0.04170092  0.39872688  1.0
  Ti  Ti929  1  0.96921534  0.16670092  0.39872688  1.0
  Ti  Ti930  1  0.96921534  0.29170092  0.39872688  1.0
  Ti  Ti931  1  0.96921534  0.41670092  0.39872688  1.0
  Ti  Ti932  1  0.96921534  0.54170092  0.39872688  1.0
  Ti  Ti933  1  0.96921534  0.66670092  0.39872688  1.0
  Ti  Ti934  1  0.96921534  0.79170092  0.39872688  1.0
  Ti  Ti935  1  0.96921534  0.91670092  0.39872688  1.0
  Ti  Ti936  1  0.02212539  0.04170092  0.49396497  1.0
  Ti  Ti937  1  0.02212539  0.16670092  0.49396497  1.0
  Ti  Ti938  1  0.02212539  0.29170092  0.49396497  1.0
  Ti  Ti939  1  0.02212539  0.41670092  0.49396497  1.0
  Ti  Ti940  1  0.02212539  0.54170092  0.49396497  1.0
  Ti  Ti941  1  0.02212539  0.66670092  0.49396497  1.0
  Ti  Ti942  1  0.02212539  0.79170092  0.49396497  1.0
  Ti  Ti943  1  0.02212539  0.91670092  0.49396497  1.0
  Ti  Ti944  1  0.13323651  0.04170092  0.49396497  1.0
  Ti  Ti945  1  0.13323651  0.16670092  0.49396497  1.0
  Ti  Ti946  1  0.13323651  0.29170092  0.49396497  1.0
  Ti  Ti947  1  0.13323651  0.41670092  0.49396497  1.0
  Ti  Ti948  1  0.13323651  0.54170092  0.49396497  1.0
  Ti  Ti949  1  0.13323651  0.66670092  0.49396497  1.0
  Ti  Ti950  1  0.13323651  0.79170092  0.49396497  1.0
  Ti  Ti951  1  0.13323651  0.91670092  0.49396497  1.0
  Ti  Ti952  1  0.24434762  0.04170092  0.49396497  1.0
  Ti  Ti953  1  0.24434762  0.16670092  0.49396497  1.0
  Ti  Ti954  1  0.24434762  0.29170092  0.49396497  1.0
  Ti  Ti955  1  0.24434762  0.41670092  0.49396497  1.0
  Ti  Ti956  1  0.24434762  0.54170092  0.49396497  1.0
  Ti  Ti957  1  0.24434762  0.66670092  0.49396497  1.0
  Ti  Ti958  1  0.24434762  0.79170092  0.49396497  1.0
  Ti  Ti959  1  0.24434762  0.91670092  0.49396497  1.0
  Ti  Ti960  1  0.35545873  0.04170092  0.49396497  1.0
  Ti  Ti961  1  0.35545873  0.16670092  0.49396497  1.0
  Ti  Ti962  1  0.35545873  0.29170092  0.49396497  1.0
  Ti  Ti963  1  0.35545873  0.41670092  0.49396497  1.0
  Ti  Ti964  1  0.35545873  0.54170092  0.49396497  1.0
  Ti  Ti965  1  0.35545873  0.66670092  0.49396497  1.0
  Ti  Ti966  1  0.35545873  0.79170092  0.49396497  1.0
  Ti  Ti967  1  0.35545873  0.91670092  0.49396497  1.0
  Ti  Ti968  1  0.46656984  0.04170092  0.49396497  1.0
  Ti  Ti969  1  0.46656984  0.16670092  0.49396497  1.0
  Ti  Ti970  1  0.46656984  0.29170092  0.49396497  1.0
  Ti  Ti971  1  0.46656984  0.41670092  0.49396497  1.0
  Ti  Ti972  1  0.46656984  0.54170092  0.49396497  1.0
  Ti  Ti973  1  0.46656984  0.66670092  0.49396497  1.0
  Ti  Ti974  1  0.46656984  0.79170092  0.49396497  1.0
  Ti  Ti975  1  0.46656984  0.91670092  0.49396497  1.0
  Ti  Ti976  1  0.57768095  0.04170092  0.49396497  1.0
  Ti  Ti977  1  0.57768095  0.16670092  0.49396497  1.0
  Ti  Ti978  1  0.57768095  0.29170092  0.49396497  1.0
  Ti  Ti979  1  0.57768095  0.41670092  0.49396497  1.0
  Ti  Ti980  1  0.57768095  0.54170092  0.49396497  1.0
  Ti  Ti981  1  0.57768095  0.66670092  0.49396497  1.0
  Ti  Ti982  1  0.57768095  0.79170092  0.49396497  1.0
  Ti  Ti983  1  0.57768095  0.91670092  0.49396497  1.0
  Ti  Ti984  1  0.68879206  0.04170092  0.49396497  1.0
  Ti  Ti985  1  0.68879206  0.16670092  0.49396497  1.0
  Ti  Ti986  1  0.68879206  0.29170092  0.49396497  1.0
  Ti  Ti987  1  0.68879206  0.41670092  0.49396497  1.0
  Ti  Ti988  1  0.68879206  0.54170092  0.49396497  1.0
  Ti  Ti989  1  0.68879206  0.66670092  0.49396497  1.0
  Ti  Ti990  1  0.68879206  0.79170092  0.49396497  1.0
  Ti  Ti991  1  0.68879206  0.91670092  0.49396497  1.0
  Ti  Ti992  1  0.79990317  0.04170092  0.49396497  1.0
  Ti  Ti993  1  0.79990317  0.16670092  0.49396497  1.0
  Ti  Ti994  1  0.79990317  0.29170092  0.49396497  1.0
  Ti  Ti995  1  0.79990317  0.41670092  0.49396497  1.0
  Ti  Ti996  1  0.79990317  0.54170092  0.49396497  1.0
  Ti  Ti997  1  0.79990317  0.66670092  0.49396497  1.0
  Ti  Ti998  1  0.79990317  0.79170092  0.49396497  1.0
  Ti  Ti999  1  0.79990317  0.91670092  0.49396497  1.0
  Ti  Ti1000  1  0.91101428  0.04170092  0.49396497  1.0
  Ti  Ti1001  1  0.91101428  0.16670092  0.49396497  1.0
  Ti  Ti1002  1  0.91101428  0.29170092  0.49396497  1.0
  Ti  Ti1003  1  0.91101428  0.41670092  0.49396497  1.0
  Ti  Ti1004  1  0.91101428  0.54170092  0.49396497  1.0
  Ti  Ti1005  1  0.91101428  0.66670092  0.49396497  1.0
  Ti  Ti1006  1  0.91101428  0.79170092  0.49396497  1.0
  Ti  Ti1007  1  0.91101428  0.91670092  0.49396497  1.0
  Ti  Ti1008  1  0.10678148  0.04170092  0.44634592  1.0
  Ti  Ti1009  1  0.10678148  0.16670092  0.44634592  1.0
  Ti  Ti1010  1  0.10678148  0.29170092  0.44634592  1.0
  Ti  Ti1011  1  0.10678148  0.41670092  0.44634592  1.0
  Ti  Ti1012  1  0.10678148  0.54170092  0.44634592  1.0
  Ti  Ti1013  1  0.10678148  0.66670092  0.44634592  1.0
  Ti  Ti1014  1  0.10678148  0.79170092  0.44634592  1.0
  Ti  Ti1015  1  0.10678148  0.91670092  0.44634592  1.0
  Ti  Ti1016  1  0.21789259  0.04170092  0.44634592  1.0
  Ti  Ti1017  1  0.21789259  0.16670092  0.44634592  1.0
  Ti  Ti1018  1  0.21789259  0.29170092  0.44634592  1.0
  Ti  Ti1019  1  0.21789259  0.41670092  0.44634592  1.0
  Ti  Ti1020  1  0.21789259  0.54170092  0.44634592  1.0
  Ti  Ti1021  1  0.21789259  0.66670092  0.44634592  1.0
  Ti  Ti1022  1  0.21789259  0.79170092  0.44634592  1.0
  Ti  Ti1023  1  0.21789259  0.91670092  0.44634592  1.0
  Ti  Ti1024  1  0.32900370  0.04170092  0.44634592  1.0
  Ti  Ti1025  1  0.32900370  0.16670092  0.44634592  1.0
  Ti  Ti1026  1  0.32900370  0.29170092  0.44634592  1.0
  Ti  Ti1027  1  0.32900370  0.41670092  0.44634592  1.0
  Ti  Ti1028  1  0.32900370  0.54170092  0.44634592  1.0
  Ti  Ti1029  1  0.32900370  0.66670092  0.44634592  1.0
  Ti  Ti1030  1  0.32900370  0.79170092  0.44634592  1.0
  Ti  Ti1031  1  0.32900370  0.91670092  0.44634592  1.0
  Ti  Ti1032  1  0.44011481  0.04170092  0.44634592  1.0
  Ti  Ti1033  1  0.44011481  0.16670092  0.44634592  1.0
  Ti  Ti1034  1  0.44011481  0.29170092  0.44634592  1.0
  Ti  Ti1035  1  0.44011481  0.41670092  0.44634592  1.0
  Ti  Ti1036  1  0.44011481  0.54170092  0.44634592  1.0
  Ti  Ti1037  1  0.44011481  0.66670092  0.44634592  1.0
  Ti  Ti1038  1  0.44011481  0.79170092  0.44634592  1.0
  Ti  Ti1039  1  0.44011481  0.91670092  0.44634592  1.0
  Ti  Ti1040  1  0.55122592  0.04170092  0.44634592  1.0
  Ti  Ti1041  1  0.55122592  0.16670092  0.44634592  1.0
  Ti  Ti1042  1  0.55122592  0.29170092  0.44634592  1.0
  Ti  Ti1043  1  0.55122592  0.41670092  0.44634592  1.0
  Ti  Ti1044  1  0.55122592  0.54170092  0.44634592  1.0
  Ti  Ti1045  1  0.55122592  0.66670092  0.44634592  1.0
  Ti  Ti1046  1  0.55122592  0.79170092  0.44634592  1.0
  Ti  Ti1047  1  0.55122592  0.91670092  0.44634592  1.0
  Ti  Ti1048  1  0.66233703  0.04170092  0.44634592  1.0
  Ti  Ti1049  1  0.66233703  0.16670092  0.44634592  1.0
  Ti  Ti1050  1  0.66233703  0.29170092  0.44634592  1.0
  Ti  Ti1051  1  0.66233703  0.41670092  0.44634592  1.0
  Ti  Ti1052  1  0.66233703  0.54170092  0.44634592  1.0
  Ti  Ti1053  1  0.66233703  0.66670092  0.44634592  1.0
  Ti  Ti1054  1  0.66233703  0.79170092  0.44634592  1.0
  Ti  Ti1055  1  0.66233703  0.91670092  0.44634592  1.0
  Ti  Ti1056  1  0.77344815  0.04170092  0.44634592  1.0
  Ti  Ti1057  1  0.77344815  0.16670092  0.44634592  1.0
  Ti  Ti1058  1  0.77344815  0.29170092  0.44634592  1.0
  Ti  Ti1059  1  0.77344815  0.41670092  0.44634592  1.0
  Ti  Ti1060  1  0.77344815  0.54170092  0.44634592  1.0
  Ti  Ti1061  1  0.77344815  0.66670092  0.44634592  1.0
  Ti  Ti1062  1  0.77344815  0.79170092  0.44634592  1.0
  Ti  Ti1063  1  0.77344815  0.91670092  0.44634592  1.0
  Ti  Ti1064  1  0.88455926  0.04170092  0.44634592  1.0
  Ti  Ti1065  1  0.88455926  0.16670092  0.44634592  1.0
  Ti  Ti1066  1  0.88455926  0.29170092  0.44634592  1.0
  Ti  Ti1067  1  0.88455926  0.41670092  0.44634592  1.0
  Ti  Ti1068  1  0.88455926  0.54170092  0.44634592  1.0
  Ti  Ti1069  1  0.88455926  0.66670092  0.44634592  1.0
  Ti  Ti1070  1  0.88455926  0.79170092  0.44634592  1.0
  Ti  Ti1071  1  0.88455926  0.91670092  0.44634592  1.0
  Ti  Ti1072  1  0.99567037  0.04170092  0.44634592  1.0
  Ti  Ti1073  1  0.99567037  0.16670092  0.44634592  1.0
  Ti  Ti1074  1  0.99567037  0.29170092  0.44634592  1.0
  Ti  Ti1075  1  0.99567037  0.41670092  0.44634592  1.0
  Ti  Ti1076  1  0.99567037  0.54170092  0.44634592  1.0
  Ti  Ti1077  1  0.99567037  0.66670092  0.44634592  1.0
  Ti  Ti1078  1  0.99567037  0.79170092  0.44634592  1.0
  Ti  Ti1079  1  0.99567037  0.91670092  0.44634592  1.0
  Ti  Ti1080  1  0.02176337  0.08329908  0.40041861  1.0
  Ti  Ti1081  1  0.02176337  0.20829908  0.40041861  1.0
  Ti  Ti1082  1  0.02176337  0.33329908  0.40041861  1.0
  Ti  Ti1083  1  0.02176337  0.45829908  0.40041861  1.0
  Ti  Ti1084  1  0.02176337  0.58329908  0.40041861  1.0
  Ti  Ti1085  1  0.02176337  0.70829908  0.40041861  1.0
  Ti  Ti1086  1  0.02176337  0.83329908  0.40041861  1.0
  Ti  Ti1087  1  0.02176337  0.95829908  0.40041861  1.0
  Ti  Ti1088  1  0.13287448  0.08329908  0.40041861  1.0
  Ti  Ti1089  1  0.13287448  0.20829908  0.40041861  1.0
  Ti  Ti1090  1  0.13287448  0.33329908  0.40041861  1.0
  Ti  Ti1091  1  0.13287448  0.45829908  0.40041861  1.0
  Ti  Ti1092  1  0.13287448  0.58329908  0.40041861  1.0
  Ti  Ti1093  1  0.13287448  0.70829908  0.40041861  1.0
  Ti  Ti1094  1  0.13287448  0.83329908  0.40041861  1.0
  Ti  Ti1095  1  0.13287448  0.95829908  0.40041861  1.0
  Ti  Ti1096  1  0.24398559  0.08329908  0.40041861  1.0
  Ti  Ti1097  1  0.24398559  0.20829908  0.40041861  1.0
  Ti  Ti1098  1  0.24398559  0.33329908  0.40041861  1.0
  Ti  Ti1099  1  0.24398559  0.45829908  0.40041861  1.0
  Ti  Ti1100  1  0.24398559  0.58329908  0.40041861  1.0
  Ti  Ti1101  1  0.24398559  0.70829908  0.40041861  1.0
  Ti  Ti1102  1  0.24398559  0.83329908  0.40041861  1.0
  Ti  Ti1103  1  0.24398559  0.95829908  0.40041861  1.0
  Ti  Ti1104  1  0.35509670  0.08329908  0.40041861  1.0
  Ti  Ti1105  1  0.35509670  0.20829908  0.40041861  1.0
  Ti  Ti1106  1  0.35509670  0.33329908  0.40041861  1.0
  Ti  Ti1107  1  0.35509670  0.45829908  0.40041861  1.0
  Ti  Ti1108  1  0.35509670  0.58329908  0.40041861  1.0
  Ti  Ti1109  1  0.35509670  0.70829908  0.40041861  1.0
  Ti  Ti1110  1  0.35509670  0.83329908  0.40041861  1.0
  Ti  Ti1111  1  0.35509670  0.95829908  0.40041861  1.0
  Ti  Ti1112  1  0.46620782  0.08329908  0.40041861  1.0
  Ti  Ti1113  1  0.46620782  0.20829908  0.40041861  1.0
  Ti  Ti1114  1  0.46620782  0.33329908  0.40041861  1.0
  Ti  Ti1115  1  0.46620782  0.45829908  0.40041861  1.0
  Ti  Ti1116  1  0.46620782  0.58329908  0.40041861  1.0
  Ti  Ti1117  1  0.46620782  0.70829908  0.40041861  1.0
  Ti  Ti1118  1  0.46620782  0.83329908  0.40041861  1.0
  Ti  Ti1119  1  0.46620782  0.95829908  0.40041861  1.0
  Ti  Ti1120  1  0.57731893  0.08329908  0.40041861  1.0
  Ti  Ti1121  1  0.57731893  0.20829908  0.40041861  1.0
  Ti  Ti1122  1  0.57731893  0.33329908  0.40041861  1.0
  Ti  Ti1123  1  0.57731893  0.45829908  0.40041861  1.0
  Ti  Ti1124  1  0.57731893  0.58329908  0.40041861  1.0
  Ti  Ti1125  1  0.57731893  0.70829908  0.40041861  1.0
  Ti  Ti1126  1  0.57731893  0.83329908  0.40041861  1.0
  Ti  Ti1127  1  0.57731893  0.95829908  0.40041861  1.0
  Ti  Ti1128  1  0.68843004  0.08329908  0.40041861  1.0
  Ti  Ti1129  1  0.68843004  0.20829908  0.40041861  1.0
  Ti  Ti1130  1  0.68843004  0.33329908  0.40041861  1.0
  Ti  Ti1131  1  0.68843004  0.45829908  0.40041861  1.0
  Ti  Ti1132  1  0.68843004  0.58329908  0.40041861  1.0
  Ti  Ti1133  1  0.68843004  0.70829908  0.40041861  1.0
  Ti  Ti1134  1  0.68843004  0.83329908  0.40041861  1.0
  Ti  Ti1135  1  0.68843004  0.95829908  0.40041861  1.0
  Ti  Ti1136  1  0.79954115  0.08329908  0.40041861  1.0
  Ti  Ti1137  1  0.79954115  0.20829908  0.40041861  1.0
  Ti  Ti1138  1  0.79954115  0.33329908  0.40041861  1.0
  Ti  Ti1139  1  0.79954115  0.45829908  0.40041861  1.0
  Ti  Ti1140  1  0.79954115  0.58329908  0.40041861  1.0
  Ti  Ti1141  1  0.79954115  0.70829908  0.40041861  1.0
  Ti  Ti1142  1  0.79954115  0.83329908  0.40041861  1.0
  Ti  Ti1143  1  0.79954115  0.95829908  0.40041861  1.0
  Ti  Ti1144  1  0.91065226  0.08329908  0.40041861  1.0
  Ti  Ti1145  1  0.91065226  0.20829908  0.40041861  1.0
  Ti  Ti1146  1  0.91065226  0.33329908  0.40041861  1.0
  Ti  Ti1147  1  0.91065226  0.45829908  0.40041861  1.0
  Ti  Ti1148  1  0.91065226  0.58329908  0.40041861  1.0
  Ti  Ti1149  1  0.91065226  0.70829908  0.40041861  1.0
  Ti  Ti1150  1  0.91065226  0.83329908  0.40041861  1.0
  Ti  Ti1151  1  0.91065226  0.95829908  0.40041861  1.0
  Ti  Ti1152  1  0.07467342  0.08329908  0.49565671  1.0
  Ti  Ti1153  1  0.07467342  0.20829908  0.49565671  1.0
  Ti  Ti1154  1  0.07467342  0.33329908  0.49565671  1.0
  Ti  Ti1155  1  0.07467342  0.45829908  0.49565671  1.0
  Ti  Ti1156  1  0.07467342  0.58329908  0.49565671  1.0
  Ti  Ti1157  1  0.07467342  0.70829908  0.49565671  1.0
  Ti  Ti1158  1  0.07467342  0.83329908  0.49565671  1.0
  Ti  Ti1159  1  0.07467342  0.95829908  0.49565671  1.0
  Ti  Ti1160  1  0.18578453  0.08329908  0.49565671  1.0
  Ti  Ti1161  1  0.18578453  0.20829908  0.49565671  1.0
  Ti  Ti1162  1  0.18578453  0.33329908  0.49565671  1.0
  Ti  Ti1163  1  0.18578453  0.45829908  0.49565671  1.0
  Ti  Ti1164  1  0.18578453  0.58329908  0.49565671  1.0
  Ti  Ti1165  1  0.18578453  0.70829908  0.49565671  1.0
  Ti  Ti1166  1  0.18578453  0.83329908  0.49565671  1.0
  Ti  Ti1167  1  0.18578453  0.95829908  0.49565671  1.0
  Ti  Ti1168  1  0.29689565  0.08329908  0.49565671  1.0
  Ti  Ti1169  1  0.29689565  0.20829908  0.49565671  1.0
  Ti  Ti1170  1  0.29689565  0.33329908  0.49565671  1.0
  Ti  Ti1171  1  0.29689565  0.45829908  0.49565671  1.0
  Ti  Ti1172  1  0.29689565  0.58329908  0.49565671  1.0
  Ti  Ti1173  1  0.29689565  0.70829908  0.49565671  1.0
  Ti  Ti1174  1  0.29689565  0.83329908  0.49565671  1.0
  Ti  Ti1175  1  0.29689565  0.95829908  0.49565671  1.0
  Ti  Ti1176  1  0.40800676  0.08329908  0.49565671  1.0
  Ti  Ti1177  1  0.40800676  0.20829908  0.49565671  1.0
  Ti  Ti1178  1  0.40800676  0.33329908  0.49565671  1.0
  Ti  Ti1179  1  0.40800676  0.45829908  0.49565671  1.0
  Ti  Ti1180  1  0.40800676  0.58329908  0.49565671  1.0
  Ti  Ti1181  1  0.40800676  0.70829908  0.49565671  1.0
  Ti  Ti1182  1  0.40800676  0.83329908  0.49565671  1.0
  Ti  Ti1183  1  0.40800676  0.95829908  0.49565671  1.0
  Ti  Ti1184  1  0.51911787  0.08329908  0.49565671  1.0
  Ti  Ti1185  1  0.51911787  0.20829908  0.49565671  1.0
  Ti  Ti1186  1  0.51911787  0.33329908  0.49565671  1.0
  Ti  Ti1187  1  0.51911787  0.45829908  0.49565671  1.0
  Ti  Ti1188  1  0.51911787  0.58329908  0.49565671  1.0
  Ti  Ti1189  1  0.51911787  0.70829908  0.49565671  1.0
  Ti  Ti1190  1  0.51911787  0.83329908  0.49565671  1.0
  Ti  Ti1191  1  0.51911787  0.95829908  0.49565671  1.0
  Ti  Ti1192  1  0.63022898  0.08329908  0.49565671  1.0
  Ti  Ti1193  1  0.63022898  0.20829908  0.49565671  1.0
  Ti  Ti1194  1  0.63022898  0.33329908  0.49565671  1.0
  Ti  Ti1195  1  0.63022898  0.45829908  0.49565671  1.0
  Ti  Ti1196  1  0.63022898  0.58329908  0.49565671  1.0
  Ti  Ti1197  1  0.63022898  0.70829908  0.49565671  1.0
  Ti  Ti1198  1  0.63022898  0.83329908  0.49565671  1.0
  Ti  Ti1199  1  0.63022898  0.95829908  0.49565671  1.0
  Ti  Ti1200  1  0.74134009  0.08329908  0.49565671  1.0
  Ti  Ti1201  1  0.74134009  0.20829908  0.49565671  1.0
  Ti  Ti1202  1  0.74134009  0.33329908  0.49565671  1.0
  Ti  Ti1203  1  0.74134009  0.45829908  0.49565671  1.0
  Ti  Ti1204  1  0.74134009  0.58329908  0.49565671  1.0
  Ti  Ti1205  1  0.74134009  0.70829908  0.49565671  1.0
  Ti  Ti1206  1  0.74134009  0.83329908  0.49565671  1.0
  Ti  Ti1207  1  0.74134009  0.95829908  0.49565671  1.0
  Ti  Ti1208  1  0.85245120  0.08329908  0.49565671  1.0
  Ti  Ti1209  1  0.85245120  0.20829908  0.49565671  1.0
  Ti  Ti1210  1  0.85245120  0.33329908  0.49565671  1.0
  Ti  Ti1211  1  0.85245120  0.45829908  0.49565671  1.0
  Ti  Ti1212  1  0.85245120  0.58329908  0.49565671  1.0
  Ti  Ti1213  1  0.85245120  0.70829908  0.49565671  1.0
  Ti  Ti1214  1  0.85245120  0.83329908  0.49565671  1.0
  Ti  Ti1215  1  0.85245120  0.95829908  0.49565671  1.0
  Ti  Ti1216  1  0.96356231  0.08329908  0.49565671  1.0
  Ti  Ti1217  1  0.96356231  0.20829908  0.49565671  1.0
  Ti  Ti1218  1  0.96356231  0.33329908  0.49565671  1.0
  Ti  Ti1219  1  0.96356231  0.45829908  0.49565671  1.0
  Ti  Ti1220  1  0.96356231  0.58329908  0.49565671  1.0
  Ti  Ti1221  1  0.96356231  0.70829908  0.49565671  1.0
  Ti  Ti1222  1  0.96356231  0.83329908  0.49565671  1.0
  Ti  Ti1223  1  0.96356231  0.95829908  0.49565671  1.0
  Ti  Ti1224  1  0.04821840  0.08329908  0.44803766  1.0
  Ti  Ti1225  1  0.04821840  0.20829908  0.44803766  1.0
  Ti  Ti1226  1  0.04821840  0.33329908  0.44803766  1.0
  Ti  Ti1227  1  0.04821840  0.45829908  0.44803766  1.0
  Ti  Ti1228  1  0.04821840  0.58329908  0.44803766  1.0
  Ti  Ti1229  1  0.04821840  0.70829908  0.44803766  1.0
  Ti  Ti1230  1  0.04821840  0.83329908  0.44803766  1.0
  Ti  Ti1231  1  0.04821840  0.95829908  0.44803766  1.0
  Ti  Ti1232  1  0.15932951  0.08329908  0.44803766  1.0
  Ti  Ti1233  1  0.15932951  0.20829908  0.44803766  1.0
  Ti  Ti1234  1  0.15932951  0.33329908  0.44803766  1.0
  Ti  Ti1235  1  0.15932951  0.45829908  0.44803766  1.0
  Ti  Ti1236  1  0.15932951  0.58329908  0.44803766  1.0
  Ti  Ti1237  1  0.15932951  0.70829908  0.44803766  1.0
  Ti  Ti1238  1  0.15932951  0.83329908  0.44803766  1.0
  Ti  Ti1239  1  0.15932951  0.95829908  0.44803766  1.0
  Ti  Ti1240  1  0.27044062  0.08329908  0.44803766  1.0
  Ti  Ti1241  1  0.27044062  0.20829908  0.44803766  1.0
  Ti  Ti1242  1  0.27044062  0.33329908  0.44803766  1.0
  Ti  Ti1243  1  0.27044062  0.45829908  0.44803766  1.0
  Ti  Ti1244  1  0.27044062  0.58329908  0.44803766  1.0
  Ti  Ti1245  1  0.27044062  0.70829908  0.44803766  1.0
  Ti  Ti1246  1  0.27044062  0.83329908  0.44803766  1.0
  Ti  Ti1247  1  0.27044062  0.95829908  0.44803766  1.0
  Ti  Ti1248  1  0.38155173  0.08329908  0.44803766  1.0
  Ti  Ti1249  1  0.38155173  0.20829908  0.44803766  1.0
  Ti  Ti1250  1  0.38155173  0.33329908  0.44803766  1.0
  Ti  Ti1251  1  0.38155173  0.45829908  0.44803766  1.0
  Ti  Ti1252  1  0.38155173  0.58329908  0.44803766  1.0
  Ti  Ti1253  1  0.38155173  0.70829908  0.44803766  1.0
  Ti  Ti1254  1  0.38155173  0.83329908  0.44803766  1.0
  Ti  Ti1255  1  0.38155173  0.95829908  0.44803766  1.0
  Ti  Ti1256  1  0.49266284  0.08329908  0.44803766  1.0
  Ti  Ti1257  1  0.49266284  0.20829908  0.44803766  1.0
  Ti  Ti1258  1  0.49266284  0.33329908  0.44803766  1.0
  Ti  Ti1259  1  0.49266284  0.45829908  0.44803766  1.0
  Ti  Ti1260  1  0.49266284  0.58329908  0.44803766  1.0
  Ti  Ti1261  1  0.49266284  0.70829908  0.44803766  1.0
  Ti  Ti1262  1  0.49266284  0.83329908  0.44803766  1.0
  Ti  Ti1263  1  0.49266284  0.95829908  0.44803766  1.0
  Ti  Ti1264  1  0.60377395  0.08329908  0.44803766  1.0
  Ti  Ti1265  1  0.60377395  0.20829908  0.44803766  1.0
  Ti  Ti1266  1  0.60377395  0.33329908  0.44803766  1.0
  Ti  Ti1267  1  0.60377395  0.45829908  0.44803766  1.0
  Ti  Ti1268  1  0.60377395  0.58329908  0.44803766  1.0
  Ti  Ti1269  1  0.60377395  0.70829908  0.44803766  1.0
  Ti  Ti1270  1  0.60377395  0.83329908  0.44803766  1.0
  Ti  Ti1271  1  0.60377395  0.95829908  0.44803766  1.0
  Ti  Ti1272  1  0.71488506  0.08329908  0.44803766  1.0
  Ti  Ti1273  1  0.71488506  0.20829908  0.44803766  1.0
  Ti  Ti1274  1  0.71488506  0.33329908  0.44803766  1.0
  Ti  Ti1275  1  0.71488506  0.45829908  0.44803766  1.0
  Ti  Ti1276  1  0.71488506  0.58329908  0.44803766  1.0
  Ti  Ti1277  1  0.71488506  0.70829908  0.44803766  1.0
  Ti  Ti1278  1  0.71488506  0.83329908  0.44803766  1.0
  Ti  Ti1279  1  0.71488506  0.95829908  0.44803766  1.0
  Ti  Ti1280  1  0.82599618  0.08329908  0.44803766  1.0
  Ti  Ti1281  1  0.82599618  0.20829908  0.44803766  1.0
  Ti  Ti1282  1  0.82599618  0.33329908  0.44803766  1.0
  Ti  Ti1283  1  0.82599618  0.45829908  0.44803766  1.0
  Ti  Ti1284  1  0.82599618  0.58329908  0.44803766  1.0
  Ti  Ti1285  1  0.82599618  0.70829908  0.44803766  1.0
  Ti  Ti1286  1  0.82599618  0.83329908  0.44803766  1.0
  Ti  Ti1287  1  0.82599618  0.95829908  0.44803766  1.0
  Ti  Ti1288  1  0.93710729  0.08329908  0.44803766  1.0
  Ti  Ti1289  1  0.93710729  0.20829908  0.44803766  1.0
  Ti  Ti1290  1  0.93710729  0.33329908  0.44803766  1.0
  Ti  Ti1291  1  0.93710729  0.45829908  0.44803766  1.0
  Ti  Ti1292  1  0.93710729  0.58329908  0.44803766  1.0
  Ti  Ti1293  1  0.93710729  0.70829908  0.44803766  1.0
  Ti  Ti1294  1  0.93710729  0.83329908  0.44803766  1.0
  Ti  Ti1295  1  0.93710729  0.95829908  0.44803766  1.0
  Ti  Ti1296  1  0.03799841  0.02079908  0.42253640  1.0
  Ti  Ti1297  1  0.03799841  0.14579908  0.42253640  1.0
  Ti  Ti1298  1  0.03799841  0.27079908  0.42253640  1.0
  Ti  Ti1299  1  0.03799841  0.39579908  0.42253640  1.0
  Ti  Ti1300  1  0.03799841  0.52079908  0.42253640  1.0
  Ti  Ti1301  1  0.03799841  0.64579908  0.42253640  1.0
  Ti  Ti1302  1  0.03799841  0.77079908  0.42253640  1.0
  Ti  Ti1303  1  0.03799841  0.89579908  0.42253640  1.0
  Ti  Ti1304  1  0.14910952  0.02079908  0.42253640  1.0
  Ti  Ti1305  1  0.14910952  0.14579908  0.42253640  1.0
  Ti  Ti1306  1  0.14910952  0.27079908  0.42253640  1.0
  Ti  Ti1307  1  0.14910952  0.39579908  0.42253640  1.0
  Ti  Ti1308  1  0.14910952  0.52079908  0.42253640  1.0
  Ti  Ti1309  1  0.14910952  0.64579908  0.42253640  1.0
  Ti  Ti1310  1  0.14910952  0.77079908  0.42253640  1.0
  Ti  Ti1311  1  0.14910952  0.89579908  0.42253640  1.0
  Ti  Ti1312  1  0.26022063  0.02079908  0.42253640  1.0
  Ti  Ti1313  1  0.26022063  0.14579908  0.42253640  1.0
  Ti  Ti1314  1  0.26022063  0.27079908  0.42253640  1.0
  Ti  Ti1315  1  0.26022063  0.39579908  0.42253640  1.0
  Ti  Ti1316  1  0.26022063  0.52079908  0.42253640  1.0
  Ti  Ti1317  1  0.26022063  0.64579908  0.42253640  1.0
  Ti  Ti1318  1  0.26022063  0.77079908  0.42253640  1.0
  Ti  Ti1319  1  0.26022063  0.89579908  0.42253640  1.0
  Ti  Ti1320  1  0.37133174  0.02079908  0.42253640  1.0
  Ti  Ti1321  1  0.37133174  0.14579908  0.42253640  1.0
  Ti  Ti1322  1  0.37133174  0.27079908  0.42253640  1.0
  Ti  Ti1323  1  0.37133174  0.39579908  0.42253640  1.0
  Ti  Ti1324  1  0.37133174  0.52079908  0.42253640  1.0
  Ti  Ti1325  1  0.37133174  0.64579908  0.42253640  1.0
  Ti  Ti1326  1  0.37133174  0.77079908  0.42253640  1.0
  Ti  Ti1327  1  0.37133174  0.89579908  0.42253640  1.0
  Ti  Ti1328  1  0.48244285  0.02079908  0.42253640  1.0
  Ti  Ti1329  1  0.48244285  0.14579908  0.42253640  1.0
  Ti  Ti1330  1  0.48244285  0.27079908  0.42253640  1.0
  Ti  Ti1331  1  0.48244285  0.39579908  0.42253640  1.0
  Ti  Ti1332  1  0.48244285  0.52079908  0.42253640  1.0
  Ti  Ti1333  1  0.48244285  0.64579908  0.42253640  1.0
  Ti  Ti1334  1  0.48244285  0.77079908  0.42253640  1.0
  Ti  Ti1335  1  0.48244285  0.89579908  0.42253640  1.0
  Ti  Ti1336  1  0.59355397  0.02079908  0.42253640  1.0
  Ti  Ti1337  1  0.59355397  0.14579908  0.42253640  1.0
  Ti  Ti1338  1  0.59355397  0.27079908  0.42253640  1.0
  Ti  Ti1339  1  0.59355397  0.39579908  0.42253640  1.0
  Ti  Ti1340  1  0.59355397  0.52079908  0.42253640  1.0
  Ti  Ti1341  1  0.59355397  0.64579908  0.42253640  1.0
  Ti  Ti1342  1  0.59355397  0.77079908  0.42253640  1.0
  Ti  Ti1343  1  0.59355397  0.89579908  0.42253640  1.0
  Ti  Ti1344  1  0.70466508  0.02079908  0.42253640  1.0
  Ti  Ti1345  1  0.70466508  0.14579908  0.42253640  1.0
  Ti  Ti1346  1  0.70466508  0.27079908  0.42253640  1.0
  Ti  Ti1347  1  0.70466508  0.39579908  0.42253640  1.0
  Ti  Ti1348  1  0.70466508  0.52079908  0.42253640  1.0
  Ti  Ti1349  1  0.70466508  0.64579908  0.42253640  1.0
  Ti  Ti1350  1  0.70466508  0.77079908  0.42253640  1.0
  Ti  Ti1351  1  0.70466508  0.89579908  0.42253640  1.0
  Ti  Ti1352  1  0.81577619  0.02079908  0.42253640  1.0
  Ti  Ti1353  1  0.81577619  0.14579908  0.42253640  1.0
  Ti  Ti1354  1  0.81577619  0.27079908  0.42253640  1.0
  Ti  Ti1355  1  0.81577619  0.39579908  0.42253640  1.0
  Ti  Ti1356  1  0.81577619  0.52079908  0.42253640  1.0
  Ti  Ti1357  1  0.81577619  0.64579908  0.42253640  1.0
  Ti  Ti1358  1  0.81577619  0.77079908  0.42253640  1.0
  Ti  Ti1359  1  0.81577619  0.89579908  0.42253640  1.0
  Ti  Ti1360  1  0.92688730  0.02079908  0.42253640  1.0
  Ti  Ti1361  1  0.92688730  0.14579908  0.42253640  1.0
  Ti  Ti1362  1  0.92688730  0.27079908  0.42253640  1.0
  Ti  Ti1363  1  0.92688730  0.39579908  0.42253640  1.0
  Ti  Ti1364  1  0.92688730  0.52079908  0.42253640  1.0
  Ti  Ti1365  1  0.92688730  0.64579908  0.42253640  1.0
  Ti  Ti1366  1  0.92688730  0.77079908  0.42253640  1.0
  Ti  Ti1367  1  0.92688730  0.89579908  0.42253640  1.0
  Ti  Ti1368  1  0.01154338  0.02079908  0.37491735  1.0
  Ti  Ti1369  1  0.01154338  0.14579908  0.37491735  1.0
  Ti  Ti1370  1  0.01154338  0.27079908  0.37491735  1.0
  Ti  Ti1371  1  0.01154338  0.39579908  0.37491735  1.0
  Ti  Ti1372  1  0.01154338  0.52079908  0.37491735  1.0
  Ti  Ti1373  1  0.01154338  0.64579908  0.37491735  1.0
  Ti  Ti1374  1  0.01154338  0.77079908  0.37491735  1.0
  Ti  Ti1375  1  0.01154338  0.89579908  0.37491735  1.0
  Ti  Ti1376  1  0.12265449  0.02079908  0.37491735  1.0
  Ti  Ti1377  1  0.12265449  0.14579908  0.37491735  1.0
  Ti  Ti1378  1  0.12265449  0.27079908  0.37491735  1.0
  Ti  Ti1379  1  0.12265449  0.39579908  0.37491735  1.0
  Ti  Ti1380  1  0.12265449  0.52079908  0.37491735  1.0
  Ti  Ti1381  1  0.12265449  0.64579908  0.37491735  1.0
  Ti  Ti1382  1  0.12265449  0.77079908  0.37491735  1.0
  Ti  Ti1383  1  0.12265449  0.89579908  0.37491735  1.0
  Ti  Ti1384  1  0.23376561  0.02079908  0.37491735  1.0
  Ti  Ti1385  1  0.23376561  0.14579908  0.37491735  1.0
  Ti  Ti1386  1  0.23376561  0.27079908  0.37491735  1.0
  Ti  Ti1387  1  0.23376561  0.39579908  0.37491735  1.0
  Ti  Ti1388  1  0.23376561  0.52079908  0.37491735  1.0
  Ti  Ti1389  1  0.23376561  0.64579908  0.37491735  1.0
  Ti  Ti1390  1  0.23376561  0.77079908  0.37491735  1.0
  Ti  Ti1391  1  0.23376561  0.89579908  0.37491735  1.0
  Ti  Ti1392  1  0.34487672  0.02079908  0.37491735  1.0
  Ti  Ti1393  1  0.34487672  0.14579908  0.37491735  1.0
  Ti  Ti1394  1  0.34487672  0.27079908  0.37491735  1.0
  Ti  Ti1395  1  0.34487672  0.39579908  0.37491735  1.0
  Ti  Ti1396  1  0.34487672  0.52079908  0.37491735  1.0
  Ti  Ti1397  1  0.34487672  0.64579908  0.37491735  1.0
  Ti  Ti1398  1  0.34487672  0.77079908  0.37491735  1.0
  Ti  Ti1399  1  0.34487672  0.89579908  0.37491735  1.0
  Ti  Ti1400  1  0.45598783  0.02079908  0.37491735  1.0
  Ti  Ti1401  1  0.45598783  0.14579908  0.37491735  1.0
  Ti  Ti1402  1  0.45598783  0.27079908  0.37491735  1.0
  Ti  Ti1403  1  0.45598783  0.39579908  0.37491735  1.0
  Ti  Ti1404  1  0.45598783  0.52079908  0.37491735  1.0
  Ti  Ti1405  1  0.45598783  0.64579908  0.37491735  1.0
  Ti  Ti1406  1  0.45598783  0.77079908  0.37491735  1.0
  Ti  Ti1407  1  0.45598783  0.89579908  0.37491735  1.0
  Ti  Ti1408  1  0.56709894  0.02079908  0.37491735  1.0
  Ti  Ti1409  1  0.56709894  0.14579908  0.37491735  1.0
  Ti  Ti1410  1  0.56709894  0.27079908  0.37491735  1.0
  Ti  Ti1411  1  0.56709894  0.39579908  0.37491735  1.0
  Ti  Ti1412  1  0.56709894  0.52079908  0.37491735  1.0
  Ti  Ti1413  1  0.56709894  0.64579908  0.37491735  1.0
  Ti  Ti1414  1  0.56709894  0.77079908  0.37491735  1.0
  Ti  Ti1415  1  0.56709894  0.89579908  0.37491735  1.0
  Ti  Ti1416  1  0.67821005  0.02079908  0.37491735  1.0
  Ti  Ti1417  1  0.67821005  0.14579908  0.37491735  1.0
  Ti  Ti1418  1  0.67821005  0.27079908  0.37491735  1.0
  Ti  Ti1419  1  0.67821005  0.39579908  0.37491735  1.0
  Ti  Ti1420  1  0.67821005  0.52079908  0.37491735  1.0
  Ti  Ti1421  1  0.67821005  0.64579908  0.37491735  1.0
  Ti  Ti1422  1  0.67821005  0.77079908  0.37491735  1.0
  Ti  Ti1423  1  0.67821005  0.89579908  0.37491735  1.0
  Ti  Ti1424  1  0.78932116  0.02079908  0.37491735  1.0
  Ti  Ti1425  1  0.78932116  0.14579908  0.37491735  1.0
  Ti  Ti1426  1  0.78932116  0.27079908  0.37491735  1.0
  Ti  Ti1427  1  0.78932116  0.39579908  0.37491735  1.0
  Ti  Ti1428  1  0.78932116  0.52079908  0.37491735  1.0
  Ti  Ti1429  1  0.78932116  0.64579908  0.37491735  1.0
  Ti  Ti1430  1  0.78932116  0.77079908  0.37491735  1.0
  Ti  Ti1431  1  0.78932116  0.89579908  0.37491735  1.0
  Ti  Ti1432  1  0.90043227  0.02079908  0.37491735  1.0
  Ti  Ti1433  1  0.90043227  0.14579908  0.37491735  1.0
  Ti  Ti1434  1  0.90043227  0.27079908  0.37491735  1.0
  Ti  Ti1435  1  0.90043227  0.39579908  0.37491735  1.0
  Ti  Ti1436  1  0.90043227  0.52079908  0.37491735  1.0
  Ti  Ti1437  1  0.90043227  0.64579908  0.37491735  1.0
  Ti  Ti1438  1  0.90043227  0.77079908  0.37491735  1.0
  Ti  Ti1439  1  0.90043227  0.89579908  0.37491735  1.0
  Ti  Ti1440  1  0.06445344  0.02079908  0.47015545  1.0
  Ti  Ti1441  1  0.06445344  0.14579908  0.47015545  1.0
  Ti  Ti1442  1  0.06445344  0.27079908  0.47015545  1.0
  Ti  Ti1443  1  0.06445344  0.39579908  0.47015545  1.0
  Ti  Ti1444  1  0.06445344  0.52079908  0.47015545  1.0
  Ti  Ti1445  1  0.06445344  0.64579908  0.47015545  1.0
  Ti  Ti1446  1  0.06445344  0.77079908  0.47015545  1.0
  Ti  Ti1447  1  0.06445344  0.89579908  0.47015545  1.0
  Ti  Ti1448  1  0.17556455  0.02079908  0.47015545  1.0
  Ti  Ti1449  1  0.17556455  0.14579908  0.47015545  1.0
  Ti  Ti1450  1  0.17556455  0.27079908  0.47015545  1.0
  Ti  Ti1451  1  0.17556455  0.39579908  0.47015545  1.0
  Ti  Ti1452  1  0.17556455  0.52079908  0.47015545  1.0
  Ti  Ti1453  1  0.17556455  0.64579908  0.47015545  1.0
  Ti  Ti1454  1  0.17556455  0.77079908  0.47015545  1.0
  Ti  Ti1455  1  0.17556455  0.89579908  0.47015545  1.0
  Ti  Ti1456  1  0.28667566  0.02079908  0.47015545  1.0
  Ti  Ti1457  1  0.28667566  0.14579908  0.47015545  1.0
  Ti  Ti1458  1  0.28667566  0.27079908  0.47015545  1.0
  Ti  Ti1459  1  0.28667566  0.39579908  0.47015545  1.0
  Ti  Ti1460  1  0.28667566  0.52079908  0.47015545  1.0
  Ti  Ti1461  1  0.28667566  0.64579908  0.47015545  1.0
  Ti  Ti1462  1  0.28667566  0.77079908  0.47015545  1.0
  Ti  Ti1463  1  0.28667566  0.89579908  0.47015545  1.0
  Ti  Ti1464  1  0.39778677  0.02079908  0.47015545  1.0
  Ti  Ti1465  1  0.39778677  0.14579908  0.47015545  1.0
  Ti  Ti1466  1  0.39778677  0.27079908  0.47015545  1.0
  Ti  Ti1467  1  0.39778677  0.39579908  0.47015545  1.0
  Ti  Ti1468  1  0.39778677  0.52079908  0.47015545  1.0
  Ti  Ti1469  1  0.39778677  0.64579908  0.47015545  1.0
  Ti  Ti1470  1  0.39778677  0.77079908  0.47015545  1.0
  Ti  Ti1471  1  0.39778677  0.89579908  0.47015545  1.0
  Ti  Ti1472  1  0.50889788  0.02079908  0.47015545  1.0
  Ti  Ti1473  1  0.50889788  0.14579908  0.47015545  1.0
  Ti  Ti1474  1  0.50889788  0.27079908  0.47015545  1.0
  Ti  Ti1475  1  0.50889788  0.39579908  0.47015545  1.0
  Ti  Ti1476  1  0.50889788  0.52079908  0.47015545  1.0
  Ti  Ti1477  1  0.50889788  0.64579908  0.47015545  1.0
  Ti  Ti1478  1  0.50889788  0.77079908  0.47015545  1.0
  Ti  Ti1479  1  0.50889788  0.89579908  0.47015545  1.0
  Ti  Ti1480  1  0.62000899  0.02079908  0.47015545  1.0
  Ti  Ti1481  1  0.62000899  0.14579908  0.47015545  1.0
  Ti  Ti1482  1  0.62000899  0.27079908  0.47015545  1.0
  Ti  Ti1483  1  0.62000899  0.39579908  0.47015545  1.0
  Ti  Ti1484  1  0.62000899  0.52079908  0.47015545  1.0
  Ti  Ti1485  1  0.62000899  0.64579908  0.47015545  1.0
  Ti  Ti1486  1  0.62000899  0.77079908  0.47015545  1.0
  Ti  Ti1487  1  0.62000899  0.89579908  0.47015545  1.0
  Ti  Ti1488  1  0.73112010  0.02079908  0.47015545  1.0
  Ti  Ti1489  1  0.73112010  0.14579908  0.47015545  1.0
  Ti  Ti1490  1  0.73112010  0.27079908  0.47015545  1.0
  Ti  Ti1491  1  0.73112010  0.39579908  0.47015545  1.0
  Ti  Ti1492  1  0.73112010  0.52079908  0.47015545  1.0
  Ti  Ti1493  1  0.73112010  0.64579908  0.47015545  1.0
  Ti  Ti1494  1  0.73112010  0.77079908  0.47015545  1.0
  Ti  Ti1495  1  0.73112010  0.89579908  0.47015545  1.0
  Ti  Ti1496  1  0.84223121  0.02079908  0.47015545  1.0
  Ti  Ti1497  1  0.84223121  0.14579908  0.47015545  1.0
  Ti  Ti1498  1  0.84223121  0.27079908  0.47015545  1.0
  Ti  Ti1499  1  0.84223121  0.39579908  0.47015545  1.0
  Ti  Ti1500  1  0.84223121  0.52079908  0.47015545  1.0
  Ti  Ti1501  1  0.84223121  0.64579908  0.47015545  1.0
  Ti  Ti1502  1  0.84223121  0.77079908  0.47015545  1.0
  Ti  Ti1503  1  0.84223121  0.89579908  0.47015545  1.0
  Ti  Ti1504  1  0.95334233  0.02079908  0.47015545  1.0
  Ti  Ti1505  1  0.95334233  0.14579908  0.47015545  1.0
  Ti  Ti1506  1  0.95334233  0.27079908  0.47015545  1.0
  Ti  Ti1507  1  0.95334233  0.39579908  0.47015545  1.0
  Ti  Ti1508  1  0.95334233  0.52079908  0.47015545  1.0
  Ti  Ti1509  1  0.95334233  0.64579908  0.47015545  1.0
  Ti  Ti1510  1  0.95334233  0.77079908  0.47015545  1.0
  Ti  Ti1511  1  0.95334233  0.89579908  0.47015545  1.0
  Ti  Ti1512  1  0.06409141  0.10420092  0.37660909  1.0
  Ti  Ti1513  1  0.06409141  0.22920092  0.37660909  1.0
  Ti  Ti1514  1  0.06409141  0.35420092  0.37660909  1.0
  Ti  Ti1515  1  0.06409141  0.47920092  0.37660909  1.0
  Ti  Ti1516  1  0.06409141  0.60420092  0.37660909  1.0
  Ti  Ti1517  1  0.06409141  0.72920092  0.37660909  1.0
  Ti  Ti1518  1  0.06409141  0.85420092  0.37660909  1.0
  Ti  Ti1519  1  0.06409141  0.97920092  0.37660909  1.0
  Ti  Ti1520  1  0.17520252  0.10420092  0.37660909  1.0
  Ti  Ti1521  1  0.17520252  0.22920092  0.37660909  1.0
  Ti  Ti1522  1  0.17520252  0.35420092  0.37660909  1.0
  Ti  Ti1523  1  0.17520252  0.47920092  0.37660909  1.0
  Ti  Ti1524  1  0.17520252  0.60420092  0.37660909  1.0
  Ti  Ti1525  1  0.17520252  0.72920092  0.37660909  1.0
  Ti  Ti1526  1  0.17520252  0.85420092  0.37660909  1.0
  Ti  Ti1527  1  0.17520252  0.97920092  0.37660909  1.0
  Ti  Ti1528  1  0.28631364  0.10420092  0.37660909  1.0
  Ti  Ti1529  1  0.28631364  0.22920092  0.37660909  1.0
  Ti  Ti1530  1  0.28631364  0.35420092  0.37660909  1.0
  Ti  Ti1531  1  0.28631364  0.47920092  0.37660909  1.0
  Ti  Ti1532  1  0.28631364  0.60420092  0.37660909  1.0
  Ti  Ti1533  1  0.28631364  0.72920092  0.37660909  1.0
  Ti  Ti1534  1  0.28631364  0.85420092  0.37660909  1.0
  Ti  Ti1535  1  0.28631364  0.97920092  0.37660909  1.0
  Ti  Ti1536  1  0.39742475  0.10420092  0.37660909  1.0
  Ti  Ti1537  1  0.39742475  0.22920092  0.37660909  1.0
  Ti  Ti1538  1  0.39742475  0.35420092  0.37660909  1.0
  Ti  Ti1539  1  0.39742475  0.47920092  0.37660909  1.0
  Ti  Ti1540  1  0.39742475  0.60420092  0.37660909  1.0
  Ti  Ti1541  1  0.39742475  0.72920092  0.37660909  1.0
  Ti  Ti1542  1  0.39742475  0.85420092  0.37660909  1.0
  Ti  Ti1543  1  0.39742475  0.97920092  0.37660909  1.0
  Ti  Ti1544  1  0.50853586  0.10420092  0.37660909  1.0
  Ti  Ti1545  1  0.50853586  0.22920092  0.37660909  1.0
  Ti  Ti1546  1  0.50853586  0.35420092  0.37660909  1.0
  Ti  Ti1547  1  0.50853586  0.47920092  0.37660909  1.0
  Ti  Ti1548  1  0.50853586  0.60420092  0.37660909  1.0
  Ti  Ti1549  1  0.50853586  0.72920092  0.37660909  1.0
  Ti  Ti1550  1  0.50853586  0.85420092  0.37660909  1.0
  Ti  Ti1551  1  0.50853586  0.97920092  0.37660909  1.0
  Ti  Ti1552  1  0.61964697  0.10420092  0.37660909  1.0
  Ti  Ti1553  1  0.61964697  0.22920092  0.37660909  1.0
  Ti  Ti1554  1  0.61964697  0.35420092  0.37660909  1.0
  Ti  Ti1555  1  0.61964697  0.47920092  0.37660909  1.0
  Ti  Ti1556  1  0.61964697  0.60420092  0.37660909  1.0
  Ti  Ti1557  1  0.61964697  0.72920092  0.37660909  1.0
  Ti  Ti1558  1  0.61964697  0.85420092  0.37660909  1.0
  Ti  Ti1559  1  0.61964697  0.97920092  0.37660909  1.0
  Ti  Ti1560  1  0.73075808  0.10420092  0.37660909  1.0
  Ti  Ti1561  1  0.73075808  0.22920092  0.37660909  1.0
  Ti  Ti1562  1  0.73075808  0.35420092  0.37660909  1.0
  Ti  Ti1563  1  0.73075808  0.47920092  0.37660909  1.0
  Ti  Ti1564  1  0.73075808  0.60420092  0.37660909  1.0
  Ti  Ti1565  1  0.73075808  0.72920092  0.37660909  1.0
  Ti  Ti1566  1  0.73075808  0.85420092  0.37660909  1.0
  Ti  Ti1567  1  0.73075808  0.97920092  0.37660909  1.0
  Ti  Ti1568  1  0.84186919  0.10420092  0.37660909  1.0
  Ti  Ti1569  1  0.84186919  0.22920092  0.37660909  1.0
  Ti  Ti1570  1  0.84186919  0.35420092  0.37660909  1.0
  Ti  Ti1571  1  0.84186919  0.47920092  0.37660909  1.0
  Ti  Ti1572  1  0.84186919  0.60420092  0.37660909  1.0
  Ti  Ti1573  1  0.84186919  0.72920092  0.37660909  1.0
  Ti  Ti1574  1  0.84186919  0.85420092  0.37660909  1.0
  Ti  Ti1575  1  0.84186919  0.97920092  0.37660909  1.0
  Ti  Ti1576  1  0.95298030  0.10420092  0.37660909  1.0
  Ti  Ti1577  1  0.95298030  0.22920092  0.37660909  1.0
  Ti  Ti1578  1  0.95298030  0.35420092  0.37660909  1.0
  Ti  Ti1579  1  0.95298030  0.47920092  0.37660909  1.0
  Ti  Ti1580  1  0.95298030  0.60420092  0.37660909  1.0
  Ti  Ti1581  1  0.95298030  0.72920092  0.37660909  1.0
  Ti  Ti1582  1  0.95298030  0.85420092  0.37660909  1.0
  Ti  Ti1583  1  0.95298030  0.97920092  0.37660909  1.0
  Ti  Ti1584  1  0.00589036  0.10420092  0.47184718  1.0
  Ti  Ti1585  1  0.00589036  0.22920092  0.47184718  1.0
  Ti  Ti1586  1  0.00589036  0.35420092  0.47184718  1.0
  Ti  Ti1587  1  0.00589036  0.47920092  0.47184718  1.0
  Ti  Ti1588  1  0.00589036  0.60420092  0.47184718  1.0
  Ti  Ti1589  1  0.00589036  0.72920092  0.47184718  1.0
  Ti  Ti1590  1  0.00589036  0.85420092  0.47184718  1.0
  Ti  Ti1591  1  0.00589036  0.97920092  0.47184718  1.0
  Ti  Ti1592  1  0.11700147  0.10420092  0.47184718  1.0
  Ti  Ti1593  1  0.11700147  0.22920092  0.47184718  1.0
  Ti  Ti1594  1  0.11700147  0.35420092  0.47184718  1.0
  Ti  Ti1595  1  0.11700147  0.47920092  0.47184718  1.0
  Ti  Ti1596  1  0.11700147  0.60420092  0.47184718  1.0
  Ti  Ti1597  1  0.11700147  0.72920092  0.47184718  1.0
  Ti  Ti1598  1  0.11700147  0.85420092  0.47184718  1.0
  Ti  Ti1599  1  0.11700147  0.97920092  0.47184718  1.0
  Ti  Ti1600  1  0.22811258  0.10420092  0.47184718  1.0
  Ti  Ti1601  1  0.22811258  0.22920092  0.47184718  1.0
  Ti  Ti1602  1  0.22811258  0.35420092  0.47184718  1.0
  Ti  Ti1603  1  0.22811258  0.47920092  0.47184718  1.0
  Ti  Ti1604  1  0.22811258  0.60420092  0.47184718  1.0
  Ti  Ti1605  1  0.22811258  0.72920092  0.47184718  1.0
  Ti  Ti1606  1  0.22811258  0.85420092  0.47184718  1.0
  Ti  Ti1607  1  0.22811258  0.97920092  0.47184718  1.0
  Ti  Ti1608  1  0.33922369  0.10420092  0.47184718  1.0
  Ti  Ti1609  1  0.33922369  0.22920092  0.47184718  1.0
  Ti  Ti1610  1  0.33922369  0.35420092  0.47184718  1.0
  Ti  Ti1611  1  0.33922369  0.47920092  0.47184718  1.0
  Ti  Ti1612  1  0.33922369  0.60420092  0.47184718  1.0
  Ti  Ti1613  1  0.33922369  0.72920092  0.47184718  1.0
  Ti  Ti1614  1  0.33922369  0.85420092  0.47184718  1.0
  Ti  Ti1615  1  0.33922369  0.97920092  0.47184718  1.0
  Ti  Ti1616  1  0.45033480  0.10420092  0.47184718  1.0
  Ti  Ti1617  1  0.45033480  0.22920092  0.47184718  1.0
  Ti  Ti1618  1  0.45033480  0.35420092  0.47184718  1.0
  Ti  Ti1619  1  0.45033480  0.47920092  0.47184718  1.0
  Ti  Ti1620  1  0.45033480  0.60420092  0.47184718  1.0
  Ti  Ti1621  1  0.45033480  0.72920092  0.47184718  1.0
  Ti  Ti1622  1  0.45033480  0.85420092  0.47184718  1.0
  Ti  Ti1623  1  0.45033480  0.97920092  0.47184718  1.0
  Ti  Ti1624  1  0.56144591  0.10420092  0.47184718  1.0
  Ti  Ti1625  1  0.56144591  0.22920092  0.47184718  1.0
  Ti  Ti1626  1  0.56144591  0.35420092  0.47184718  1.0
  Ti  Ti1627  1  0.56144591  0.47920092  0.47184718  1.0
  Ti  Ti1628  1  0.56144591  0.60420092  0.47184718  1.0
  Ti  Ti1629  1  0.56144591  0.72920092  0.47184718  1.0
  Ti  Ti1630  1  0.56144591  0.85420092  0.47184718  1.0
  Ti  Ti1631  1  0.56144591  0.97920092  0.47184718  1.0
  Ti  Ti1632  1  0.67255702  0.10420092  0.47184718  1.0
  Ti  Ti1633  1  0.67255702  0.22920092  0.47184718  1.0
  Ti  Ti1634  1  0.67255702  0.35420092  0.47184718  1.0
  Ti  Ti1635  1  0.67255702  0.47920092  0.47184718  1.0
  Ti  Ti1636  1  0.67255702  0.60420092  0.47184718  1.0
  Ti  Ti1637  1  0.67255702  0.72920092  0.47184718  1.0
  Ti  Ti1638  1  0.67255702  0.85420092  0.47184718  1.0
  Ti  Ti1639  1  0.67255702  0.97920092  0.47184718  1.0
  Ti  Ti1640  1  0.78366813  0.10420092  0.47184718  1.0
  Ti  Ti1641  1  0.78366813  0.22920092  0.47184718  1.0
  Ti  Ti1642  1  0.78366813  0.35420092  0.47184718  1.0
  Ti  Ti1643  1  0.78366813  0.47920092  0.47184718  1.0
  Ti  Ti1644  1  0.78366813  0.60420092  0.47184718  1.0
  Ti  Ti1645  1  0.78366813  0.72920092  0.47184718  1.0
  Ti  Ti1646  1  0.78366813  0.85420092  0.47184718  1.0
  Ti  Ti1647  1  0.78366813  0.97920092  0.47184718  1.0
  Ti  Ti1648  1  0.89477924  0.10420092  0.47184718  1.0
  Ti  Ti1649  1  0.89477924  0.22920092  0.47184718  1.0
  Ti  Ti1650  1  0.89477924  0.35420092  0.47184718  1.0
  Ti  Ti1651  1  0.89477924  0.47920092  0.47184718  1.0
  Ti  Ti1652  1  0.89477924  0.60420092  0.47184718  1.0
  Ti  Ti1653  1  0.89477924  0.72920092  0.47184718  1.0
  Ti  Ti1654  1  0.89477924  0.85420092  0.47184718  1.0
  Ti  Ti1655  1  0.89477924  0.97920092  0.47184718  1.0
  Ti  Ti1656  1  0.09054644  0.10420092  0.42422813  1.0
  Ti  Ti1657  1  0.09054644  0.22920092  0.42422813  1.0
  Ti  Ti1658  1  0.09054644  0.35420092  0.42422813  1.0
  Ti  Ti1659  1  0.09054644  0.47920092  0.42422813  1.0
  Ti  Ti1660  1  0.09054644  0.60420092  0.42422813  1.0
  Ti  Ti1661  1  0.09054644  0.72920092  0.42422813  1.0
  Ti  Ti1662  1  0.09054644  0.85420092  0.42422813  1.0
  Ti  Ti1663  1  0.09054644  0.97920092  0.42422813  1.0
  Ti  Ti1664  1  0.20165755  0.10420092  0.42422813  1.0
  Ti  Ti1665  1  0.20165755  0.22920092  0.42422813  1.0
  Ti  Ti1666  1  0.20165755  0.35420092  0.42422813  1.0
  Ti  Ti1667  1  0.20165755  0.47920092  0.42422813  1.0
  Ti  Ti1668  1  0.20165755  0.60420092  0.42422813  1.0
  Ti  Ti1669  1  0.20165755  0.72920092  0.42422813  1.0
  Ti  Ti1670  1  0.20165755  0.85420092  0.42422813  1.0
  Ti  Ti1671  1  0.20165755  0.97920092  0.42422813  1.0
  Ti  Ti1672  1  0.31276866  0.10420092  0.42422813  1.0
  Ti  Ti1673  1  0.31276866  0.22920092  0.42422813  1.0
  Ti  Ti1674  1  0.31276866  0.35420092  0.42422813  1.0
  Ti  Ti1675  1  0.31276866  0.47920092  0.42422813  1.0
  Ti  Ti1676  1  0.31276866  0.60420092  0.42422813  1.0
  Ti  Ti1677  1  0.31276866  0.72920092  0.42422813  1.0
  Ti  Ti1678  1  0.31276866  0.85420092  0.42422813  1.0
  Ti  Ti1679  1  0.31276866  0.97920092  0.42422813  1.0
  Ti  Ti1680  1  0.42387977  0.10420092  0.42422813  1.0
  Ti  Ti1681  1  0.42387977  0.22920092  0.42422813  1.0
  Ti  Ti1682  1  0.42387977  0.35420092  0.42422813  1.0
  Ti  Ti1683  1  0.42387977  0.47920092  0.42422813  1.0
  Ti  Ti1684  1  0.42387977  0.60420092  0.42422813  1.0
  Ti  Ti1685  1  0.42387977  0.72920092  0.42422813  1.0
  Ti  Ti1686  1  0.42387977  0.85420092  0.42422813  1.0
  Ti  Ti1687  1  0.42387977  0.97920092  0.42422813  1.0
  Ti  Ti1688  1  0.53499088  0.10420092  0.42422813  1.0
  Ti  Ti1689  1  0.53499088  0.22920092  0.42422813  1.0
  Ti  Ti1690  1  0.53499088  0.35420092  0.42422813  1.0
  Ti  Ti1691  1  0.53499088  0.47920092  0.42422813  1.0
  Ti  Ti1692  1  0.53499088  0.60420092  0.42422813  1.0
  Ti  Ti1693  1  0.53499088  0.72920092  0.42422813  1.0
  Ti  Ti1694  1  0.53499088  0.85420092  0.42422813  1.0
  Ti  Ti1695  1  0.53499088  0.97920092  0.42422813  1.0
  Ti  Ti1696  1  0.64610200  0.10420092  0.42422813  1.0
  Ti  Ti1697  1  0.64610200  0.22920092  0.42422813  1.0
  Ti  Ti1698  1  0.64610200  0.35420092  0.42422813  1.0
  Ti  Ti1699  1  0.64610200  0.47920092  0.42422813  1.0
  Ti  Ti1700  1  0.64610200  0.60420092  0.42422813  1.0
  Ti  Ti1701  1  0.64610200  0.72920092  0.42422813  1.0
  Ti  Ti1702  1  0.64610200  0.85420092  0.42422813  1.0
  Ti  Ti1703  1  0.64610200  0.97920092  0.42422813  1.0
  Ti  Ti1704  1  0.75721311  0.10420092  0.42422813  1.0
  Ti  Ti1705  1  0.75721311  0.22920092  0.42422813  1.0
  Ti  Ti1706  1  0.75721311  0.35420092  0.42422813  1.0
  Ti  Ti1707  1  0.75721311  0.47920092  0.42422813  1.0
  Ti  Ti1708  1  0.75721311  0.60420092  0.42422813  1.0
  Ti  Ti1709  1  0.75721311  0.72920092  0.42422813  1.0
  Ti  Ti1710  1  0.75721311  0.85420092  0.42422813  1.0
  Ti  Ti1711  1  0.75721311  0.97920092  0.42422813  1.0
  Ti  Ti1712  1  0.86832422  0.10420092  0.42422813  1.0
  Ti  Ti1713  1  0.86832422  0.22920092  0.42422813  1.0
  Ti  Ti1714  1  0.86832422  0.35420092  0.42422813  1.0
  Ti  Ti1715  1  0.86832422  0.47920092  0.42422813  1.0
  Ti  Ti1716  1  0.86832422  0.60420092  0.42422813  1.0
  Ti  Ti1717  1  0.86832422  0.72920092  0.42422813  1.0
  Ti  Ti1718  1  0.86832422  0.85420092  0.42422813  1.0
  Ti  Ti1719  1  0.86832422  0.97920092  0.42422813  1.0
  Ti  Ti1720  1  0.97943533  0.10420092  0.42422813  1.0
  Ti  Ti1721  1  0.97943533  0.22920092  0.42422813  1.0
  Ti  Ti1722  1  0.97943533  0.35420092  0.42422813  1.0
  Ti  Ti1723  1  0.97943533  0.47920092  0.42422813  1.0
  Ti  Ti1724  1  0.97943533  0.60420092  0.42422813  1.0
  Ti  Ti1725  1  0.97943533  0.72920092  0.42422813  1.0
  Ti  Ti1726  1  0.97943533  0.85420092  0.42422813  1.0
  Ti  Ti1727  1  0.97943533  0.97920092  0.42422813  1.0
  Ti  Ti1728  1  0.04858042  0.04170092  0.54158402  1.0
  Ti  Ti1729  1  0.04858042  0.16670092  0.54158402  1.0
  Ti  Ti1730  1  0.04858042  0.29170092  0.54158402  1.0
  Ti  Ti1731  1  0.04858042  0.41670092  0.54158402  1.0
  Ti  Ti1732  1  0.04858042  0.54170092  0.54158402  1.0
  Ti  Ti1733  1  0.04858042  0.66670092  0.54158402  1.0
  Ti  Ti1734  1  0.04858042  0.79170092  0.54158402  1.0
  Ti  Ti1735  1  0.04858042  0.91670092  0.54158402  1.0
  Ti  Ti1736  1  0.15969153  0.04170092  0.54158402  1.0
  Ti  Ti1737  1  0.15969153  0.16670092  0.54158402  1.0
  Ti  Ti1738  1  0.15969153  0.29170092  0.54158402  1.0
  Ti  Ti1739  1  0.15969153  0.41670092  0.54158402  1.0
  Ti  Ti1740  1  0.15969153  0.54170092  0.54158402  1.0
  Ti  Ti1741  1  0.15969153  0.66670092  0.54158402  1.0
  Ti  Ti1742  1  0.15969153  0.79170092  0.54158402  1.0
  Ti  Ti1743  1  0.15969153  0.91670092  0.54158402  1.0
  Ti  Ti1744  1  0.27080264  0.04170092  0.54158402  1.0
  Ti  Ti1745  1  0.27080264  0.16670092  0.54158402  1.0
  Ti  Ti1746  1  0.27080264  0.29170092  0.54158402  1.0
  Ti  Ti1747  1  0.27080264  0.41670092  0.54158402  1.0
  Ti  Ti1748  1  0.27080264  0.54170092  0.54158402  1.0
  Ti  Ti1749  1  0.27080264  0.66670092  0.54158402  1.0
  Ti  Ti1750  1  0.27080264  0.79170092  0.54158402  1.0
  Ti  Ti1751  1  0.27080264  0.91670092  0.54158402  1.0
  Ti  Ti1752  1  0.38191375  0.04170092  0.54158402  1.0
  Ti  Ti1753  1  0.38191375  0.16670092  0.54158402  1.0
  Ti  Ti1754  1  0.38191375  0.29170092  0.54158402  1.0
  Ti  Ti1755  1  0.38191375  0.41670092  0.54158402  1.0
  Ti  Ti1756  1  0.38191375  0.54170092  0.54158402  1.0
  Ti  Ti1757  1  0.38191375  0.66670092  0.54158402  1.0
  Ti  Ti1758  1  0.38191375  0.79170092  0.54158402  1.0
  Ti  Ti1759  1  0.38191375  0.91670092  0.54158402  1.0
  Ti  Ti1760  1  0.49302487  0.04170092  0.54158402  1.0
  Ti  Ti1761  1  0.49302487  0.16670092  0.54158402  1.0
  Ti  Ti1762  1  0.49302487  0.29170092  0.54158402  1.0
  Ti  Ti1763  1  0.49302487  0.41670092  0.54158402  1.0
  Ti  Ti1764  1  0.49302487  0.54170092  0.54158402  1.0
  Ti  Ti1765  1  0.49302487  0.66670092  0.54158402  1.0
  Ti  Ti1766  1  0.49302487  0.79170092  0.54158402  1.0
  Ti  Ti1767  1  0.49302487  0.91670092  0.54158402  1.0
  Ti  Ti1768  1  0.60413598  0.04170092  0.54158402  1.0
  Ti  Ti1769  1  0.60413598  0.16670092  0.54158402  1.0
  Ti  Ti1770  1  0.60413598  0.29170092  0.54158402  1.0
  Ti  Ti1771  1  0.60413598  0.41670092  0.54158402  1.0
  Ti  Ti1772  1  0.60413598  0.54170092  0.54158402  1.0
  Ti  Ti1773  1  0.60413598  0.66670092  0.54158402  1.0
  Ti  Ti1774  1  0.60413598  0.79170092  0.54158402  1.0
  Ti  Ti1775  1  0.60413598  0.91670092  0.54158402  1.0
  Ti  Ti1776  1  0.71524709  0.04170092  0.54158402  1.0
  Ti  Ti1777  1  0.71524709  0.16670092  0.54158402  1.0
  Ti  Ti1778  1  0.71524709  0.29170092  0.54158402  1.0
  Ti  Ti1779  1  0.71524709  0.41670092  0.54158402  1.0
  Ti  Ti1780  1  0.71524709  0.54170092  0.54158402  1.0
  Ti  Ti1781  1  0.71524709  0.66670092  0.54158402  1.0
  Ti  Ti1782  1  0.71524709  0.79170092  0.54158402  1.0
  Ti  Ti1783  1  0.71524709  0.91670092  0.54158402  1.0
  Ti  Ti1784  1  0.82635820  0.04170092  0.54158402  1.0
  Ti  Ti1785  1  0.82635820  0.16670092  0.54158402  1.0
  Ti  Ti1786  1  0.82635820  0.29170092  0.54158402  1.0
  Ti  Ti1787  1  0.82635820  0.41670092  0.54158402  1.0
  Ti  Ti1788  1  0.82635820  0.54170092  0.54158402  1.0
  Ti  Ti1789  1  0.82635820  0.66670092  0.54158402  1.0
  Ti  Ti1790  1  0.82635820  0.79170092  0.54158402  1.0
  Ti  Ti1791  1  0.82635820  0.91670092  0.54158402  1.0
  Ti  Ti1792  1  0.93746931  0.04170092  0.54158402  1.0
  Ti  Ti1793  1  0.93746931  0.16670092  0.54158402  1.0
  Ti  Ti1794  1  0.93746931  0.29170092  0.54158402  1.0
  Ti  Ti1795  1  0.93746931  0.41670092  0.54158402  1.0
  Ti  Ti1796  1  0.93746931  0.54170092  0.54158402  1.0
  Ti  Ti1797  1  0.93746931  0.66670092  0.54158402  1.0
  Ti  Ti1798  1  0.93746931  0.79170092  0.54158402  1.0
  Ti  Ti1799  1  0.93746931  0.91670092  0.54158402  1.0
  Ti  Ti1800  1  0.10149047  0.04170092  0.63682212  1.0
  Ti  Ti1801  1  0.10149047  0.16670092  0.63682212  1.0
  Ti  Ti1802  1  0.10149047  0.29170092  0.63682212  1.0
  Ti  Ti1803  1  0.10149047  0.41670092  0.63682212  1.0
  Ti  Ti1804  1  0.10149047  0.54170092  0.63682212  1.0
  Ti  Ti1805  1  0.10149047  0.66670092  0.63682212  1.0
  Ti  Ti1806  1  0.10149047  0.79170092  0.63682212  1.0
  Ti  Ti1807  1  0.10149047  0.91670092  0.63682212  1.0
  Ti  Ti1808  1  0.21260158  0.04170092  0.63682212  1.0
  Ti  Ti1809  1  0.21260158  0.16670092  0.63682212  1.0
  Ti  Ti1810  1  0.21260158  0.29170092  0.63682212  1.0
  Ti  Ti1811  1  0.21260158  0.41670092  0.63682212  1.0
  Ti  Ti1812  1  0.21260158  0.54170092  0.63682212  1.0
  Ti  Ti1813  1  0.21260158  0.66670092  0.63682212  1.0
  Ti  Ti1814  1  0.21260158  0.79170092  0.63682212  1.0
  Ti  Ti1815  1  0.21260158  0.91670092  0.63682212  1.0
  Ti  Ti1816  1  0.32371270  0.04170092  0.63682212  1.0
  Ti  Ti1817  1  0.32371270  0.16670092  0.63682212  1.0
  Ti  Ti1818  1  0.32371270  0.29170092  0.63682212  1.0
  Ti  Ti1819  1  0.32371270  0.41670092  0.63682212  1.0
  Ti  Ti1820  1  0.32371270  0.54170092  0.63682212  1.0
  Ti  Ti1821  1  0.32371270  0.66670092  0.63682212  1.0
  Ti  Ti1822  1  0.32371270  0.79170092  0.63682212  1.0
  Ti  Ti1823  1  0.32371270  0.91670092  0.63682212  1.0
  Ti  Ti1824  1  0.43482381  0.04170092  0.63682212  1.0
  Ti  Ti1825  1  0.43482381  0.16670092  0.63682212  1.0
  Ti  Ti1826  1  0.43482381  0.29170092  0.63682212  1.0
  Ti  Ti1827  1  0.43482381  0.41670092  0.63682212  1.0
  Ti  Ti1828  1  0.43482381  0.54170092  0.63682212  1.0
  Ti  Ti1829  1  0.43482381  0.66670092  0.63682212  1.0
  Ti  Ti1830  1  0.43482381  0.79170092  0.63682212  1.0
  Ti  Ti1831  1  0.43482381  0.91670092  0.63682212  1.0
  Ti  Ti1832  1  0.54593492  0.04170092  0.63682212  1.0
  Ti  Ti1833  1  0.54593492  0.16670092  0.63682212  1.0
  Ti  Ti1834  1  0.54593492  0.29170092  0.63682212  1.0
  Ti  Ti1835  1  0.54593492  0.41670092  0.63682212  1.0
  Ti  Ti1836  1  0.54593492  0.54170092  0.63682212  1.0
  Ti  Ti1837  1  0.54593492  0.66670092  0.63682212  1.0
  Ti  Ti1838  1  0.54593492  0.79170092  0.63682212  1.0
  Ti  Ti1839  1  0.54593492  0.91670092  0.63682212  1.0
  Ti  Ti1840  1  0.65704603  0.04170092  0.63682212  1.0
  Ti  Ti1841  1  0.65704603  0.16670092  0.63682212  1.0
  Ti  Ti1842  1  0.65704603  0.29170092  0.63682212  1.0
  Ti  Ti1843  1  0.65704603  0.41670092  0.63682212  1.0
  Ti  Ti1844  1  0.65704603  0.54170092  0.63682212  1.0
  Ti  Ti1845  1  0.65704603  0.66670092  0.63682212  1.0
  Ti  Ti1846  1  0.65704603  0.79170092  0.63682212  1.0
  Ti  Ti1847  1  0.65704603  0.91670092  0.63682212  1.0
  Ti  Ti1848  1  0.76815714  0.04170092  0.63682212  1.0
  Ti  Ti1849  1  0.76815714  0.16670092  0.63682212  1.0
  Ti  Ti1850  1  0.76815714  0.29170092  0.63682212  1.0
  Ti  Ti1851  1  0.76815714  0.41670092  0.63682212  1.0
  Ti  Ti1852  1  0.76815714  0.54170092  0.63682212  1.0
  Ti  Ti1853  1  0.76815714  0.66670092  0.63682212  1.0
  Ti  Ti1854  1  0.76815714  0.79170092  0.63682212  1.0
  Ti  Ti1855  1  0.76815714  0.91670092  0.63682212  1.0
  Ti  Ti1856  1  0.87926825  0.04170092  0.63682212  1.0
  Ti  Ti1857  1  0.87926825  0.16670092  0.63682212  1.0
  Ti  Ti1858  1  0.87926825  0.29170092  0.63682212  1.0
  Ti  Ti1859  1  0.87926825  0.41670092  0.63682212  1.0
  Ti  Ti1860  1  0.87926825  0.54170092  0.63682212  1.0
  Ti  Ti1861  1  0.87926825  0.66670092  0.63682212  1.0
  Ti  Ti1862  1  0.87926825  0.79170092  0.63682212  1.0
  Ti  Ti1863  1  0.87926825  0.91670092  0.63682212  1.0
  Ti  Ti1864  1  0.99037936  0.04170092  0.63682212  1.0
  Ti  Ti1865  1  0.99037936  0.16670092  0.63682212  1.0
  Ti  Ti1866  1  0.99037936  0.29170092  0.63682212  1.0
  Ti  Ti1867  1  0.99037936  0.41670092  0.63682212  1.0
  Ti  Ti1868  1  0.99037936  0.54170092  0.63682212  1.0
  Ti  Ti1869  1  0.99037936  0.66670092  0.63682212  1.0
  Ti  Ti1870  1  0.99037936  0.79170092  0.63682212  1.0
  Ti  Ti1871  1  0.99037936  0.91670092  0.63682212  1.0
  Ti  Ti1872  1  0.07503545  0.04170092  0.58920307  1.0
  Ti  Ti1873  1  0.07503545  0.16670092  0.58920307  1.0
  Ti  Ti1874  1  0.07503545  0.29170092  0.58920307  1.0
  Ti  Ti1875  1  0.07503545  0.41670092  0.58920307  1.0
  Ti  Ti1876  1  0.07503545  0.54170092  0.58920307  1.0
  Ti  Ti1877  1  0.07503545  0.66670092  0.58920307  1.0
  Ti  Ti1878  1  0.07503545  0.79170092  0.58920307  1.0
  Ti  Ti1879  1  0.07503545  0.91670092  0.58920307  1.0
  Ti  Ti1880  1  0.18614656  0.04170092  0.58920307  1.0
  Ti  Ti1881  1  0.18614656  0.16670092  0.58920307  1.0
  Ti  Ti1882  1  0.18614656  0.29170092  0.58920307  1.0
  Ti  Ti1883  1  0.18614656  0.41670092  0.58920307  1.0
  Ti  Ti1884  1  0.18614656  0.54170092  0.58920307  1.0
  Ti  Ti1885  1  0.18614656  0.66670092  0.58920307  1.0
  Ti  Ti1886  1  0.18614656  0.79170092  0.58920307  1.0
  Ti  Ti1887  1  0.18614656  0.91670092  0.58920307  1.0
  Ti  Ti1888  1  0.29725767  0.04170092  0.58920307  1.0
  Ti  Ti1889  1  0.29725767  0.16670092  0.58920307  1.0
  Ti  Ti1890  1  0.29725767  0.29170092  0.58920307  1.0
  Ti  Ti1891  1  0.29725767  0.41670092  0.58920307  1.0
  Ti  Ti1892  1  0.29725767  0.54170092  0.58920307  1.0
  Ti  Ti1893  1  0.29725767  0.66670092  0.58920307  1.0
  Ti  Ti1894  1  0.29725767  0.79170092  0.58920307  1.0
  Ti  Ti1895  1  0.29725767  0.91670092  0.58920307  1.0
  Ti  Ti1896  1  0.40836878  0.04170092  0.58920307  1.0
  Ti  Ti1897  1  0.40836878  0.16670092  0.58920307  1.0
  Ti  Ti1898  1  0.40836878  0.29170092  0.58920307  1.0
  Ti  Ti1899  1  0.40836878  0.41670092  0.58920307  1.0
  Ti  Ti1900  1  0.40836878  0.54170092  0.58920307  1.0
  Ti  Ti1901  1  0.40836878  0.66670092  0.58920307  1.0
  Ti  Ti1902  1  0.40836878  0.79170092  0.58920307  1.0
  Ti  Ti1903  1  0.40836878  0.91670092  0.58920307  1.0
  Ti  Ti1904  1  0.51947989  0.04170092  0.58920307  1.0
  Ti  Ti1905  1  0.51947989  0.16670092  0.58920307  1.0
  Ti  Ti1906  1  0.51947989  0.29170092  0.58920307  1.0
  Ti  Ti1907  1  0.51947989  0.41670092  0.58920307  1.0
  Ti  Ti1908  1  0.51947989  0.54170092  0.58920307  1.0
  Ti  Ti1909  1  0.51947989  0.66670092  0.58920307  1.0
  Ti  Ti1910  1  0.51947989  0.79170092  0.58920307  1.0
  Ti  Ti1911  1  0.51947989  0.91670092  0.58920307  1.0
  Ti  Ti1912  1  0.63059100  0.04170092  0.58920307  1.0
  Ti  Ti1913  1  0.63059100  0.16670092  0.58920307  1.0
  Ti  Ti1914  1  0.63059100  0.29170092  0.58920307  1.0
  Ti  Ti1915  1  0.63059100  0.41670092  0.58920307  1.0
  Ti  Ti1916  1  0.63059100  0.54170092  0.58920307  1.0
  Ti  Ti1917  1  0.63059100  0.66670092  0.58920307  1.0
  Ti  Ti1918  1  0.63059100  0.79170092  0.58920307  1.0
  Ti  Ti1919  1  0.63059100  0.91670092  0.58920307  1.0
  Ti  Ti1920  1  0.74170211  0.04170092  0.58920307  1.0
  Ti  Ti1921  1  0.74170211  0.16670092  0.58920307  1.0
  Ti  Ti1922  1  0.74170211  0.29170092  0.58920307  1.0
  Ti  Ti1923  1  0.74170211  0.41670092  0.58920307  1.0
  Ti  Ti1924  1  0.74170211  0.54170092  0.58920307  1.0
  Ti  Ti1925  1  0.74170211  0.66670092  0.58920307  1.0
  Ti  Ti1926  1  0.74170211  0.79170092  0.58920307  1.0
  Ti  Ti1927  1  0.74170211  0.91670092  0.58920307  1.0
  Ti  Ti1928  1  0.85281322  0.04170092  0.58920307  1.0
  Ti  Ti1929  1  0.85281322  0.16670092  0.58920307  1.0
  Ti  Ti1930  1  0.85281322  0.29170092  0.58920307  1.0
  Ti  Ti1931  1  0.85281322  0.41670092  0.58920307  1.0
  Ti  Ti1932  1  0.85281322  0.54170092  0.58920307  1.0
  Ti  Ti1933  1  0.85281322  0.66670092  0.58920307  1.0
  Ti  Ti1934  1  0.85281322  0.79170092  0.58920307  1.0
  Ti  Ti1935  1  0.85281322  0.91670092  0.58920307  1.0
  Ti  Ti1936  1  0.96392434  0.04170092  0.58920307  1.0
  Ti  Ti1937  1  0.96392434  0.16670092  0.58920307  1.0
  Ti  Ti1938  1  0.96392434  0.29170092  0.58920307  1.0
  Ti  Ti1939  1  0.96392434  0.41670092  0.58920307  1.0
  Ti  Ti1940  1  0.96392434  0.54170092  0.58920307  1.0
  Ti  Ti1941  1  0.96392434  0.66670092  0.58920307  1.0
  Ti  Ti1942  1  0.96392434  0.79170092  0.58920307  1.0
  Ti  Ti1943  1  0.96392434  0.91670092  0.58920307  1.0
  Ti  Ti1944  1  0.10112845  0.08329908  0.54327575  1.0
  Ti  Ti1945  1  0.10112845  0.20829908  0.54327575  1.0
  Ti  Ti1946  1  0.10112845  0.33329908  0.54327575  1.0
  Ti  Ti1947  1  0.10112845  0.45829908  0.54327575  1.0
  Ti  Ti1948  1  0.10112845  0.58329908  0.54327575  1.0
  Ti  Ti1949  1  0.10112845  0.70829908  0.54327575  1.0
  Ti  Ti1950  1  0.10112845  0.83329908  0.54327575  1.0
  Ti  Ti1951  1  0.10112845  0.95829908  0.54327575  1.0
  Ti  Ti1952  1  0.21223956  0.08329908  0.54327575  1.0
  Ti  Ti1953  1  0.21223956  0.20829908  0.54327575  1.0
  Ti  Ti1954  1  0.21223956  0.33329908  0.54327575  1.0
  Ti  Ti1955  1  0.21223956  0.45829908  0.54327575  1.0
  Ti  Ti1956  1  0.21223956  0.58329908  0.54327575  1.0
  Ti  Ti1957  1  0.21223956  0.70829908  0.54327575  1.0
  Ti  Ti1958  1  0.21223956  0.83329908  0.54327575  1.0
  Ti  Ti1959  1  0.21223956  0.95829908  0.54327575  1.0
  Ti  Ti1960  1  0.32335067  0.08329908  0.54327575  1.0
  Ti  Ti1961  1  0.32335067  0.20829908  0.54327575  1.0
  Ti  Ti1962  1  0.32335067  0.33329908  0.54327575  1.0
  Ti  Ti1963  1  0.32335067  0.45829908  0.54327575  1.0
  Ti  Ti1964  1  0.32335067  0.58329908  0.54327575  1.0
  Ti  Ti1965  1  0.32335067  0.70829908  0.54327575  1.0
  Ti  Ti1966  1  0.32335067  0.83329908  0.54327575  1.0
  Ti  Ti1967  1  0.32335067  0.95829908  0.54327575  1.0
  Ti  Ti1968  1  0.43446178  0.08329908  0.54327575  1.0
  Ti  Ti1969  1  0.43446178  0.20829908  0.54327575  1.0
  Ti  Ti1970  1  0.43446178  0.33329908  0.54327575  1.0
  Ti  Ti1971  1  0.43446178  0.45829908  0.54327575  1.0
  Ti  Ti1972  1  0.43446178  0.58329908  0.54327575  1.0
  Ti  Ti1973  1  0.43446178  0.70829908  0.54327575  1.0
  Ti  Ti1974  1  0.43446178  0.83329908  0.54327575  1.0
  Ti  Ti1975  1  0.43446178  0.95829908  0.54327575  1.0
  Ti  Ti1976  1  0.54557289  0.08329908  0.54327575  1.0
  Ti  Ti1977  1  0.54557289  0.20829908  0.54327575  1.0
  Ti  Ti1978  1  0.54557289  0.33329908  0.54327575  1.0
  Ti  Ti1979  1  0.54557289  0.45829908  0.54327575  1.0
  Ti  Ti1980  1  0.54557289  0.58329908  0.54327575  1.0
  Ti  Ti1981  1  0.54557289  0.70829908  0.54327575  1.0
  Ti  Ti1982  1  0.54557289  0.83329908  0.54327575  1.0
  Ti  Ti1983  1  0.54557289  0.95829908  0.54327575  1.0
  Ti  Ti1984  1  0.65668401  0.08329908  0.54327575  1.0
  Ti  Ti1985  1  0.65668401  0.20829908  0.54327575  1.0
  Ti  Ti1986  1  0.65668401  0.33329908  0.54327575  1.0
  Ti  Ti1987  1  0.65668401  0.45829908  0.54327575  1.0
  Ti  Ti1988  1  0.65668401  0.58329908  0.54327575  1.0
  Ti  Ti1989  1  0.65668401  0.70829908  0.54327575  1.0
  Ti  Ti1990  1  0.65668401  0.83329908  0.54327575  1.0
  Ti  Ti1991  1  0.65668401  0.95829908  0.54327575  1.0
  Ti  Ti1992  1  0.76779512  0.08329908  0.54327575  1.0
  Ti  Ti1993  1  0.76779512  0.20829908  0.54327575  1.0
  Ti  Ti1994  1  0.76779512  0.33329908  0.54327575  1.0
  Ti  Ti1995  1  0.76779512  0.45829908  0.54327575  1.0
  Ti  Ti1996  1  0.76779512  0.58329908  0.54327575  1.0
  Ti  Ti1997  1  0.76779512  0.70829908  0.54327575  1.0
  Ti  Ti1998  1  0.76779512  0.83329908  0.54327575  1.0
  Ti  Ti1999  1  0.76779512  0.95829908  0.54327575  1.0
  Ti  Ti2000  1  0.87890623  0.08329908  0.54327575  1.0
  Ti  Ti2001  1  0.87890623  0.20829908  0.54327575  1.0
  Ti  Ti2002  1  0.87890623  0.33329908  0.54327575  1.0
  Ti  Ti2003  1  0.87890623  0.45829908  0.54327575  1.0
  Ti  Ti2004  1  0.87890623  0.58329908  0.54327575  1.0
  Ti  Ti2005  1  0.87890623  0.70829908  0.54327575  1.0
  Ti  Ti2006  1  0.87890623  0.83329908  0.54327575  1.0
  Ti  Ti2007  1  0.87890623  0.95829908  0.54327575  1.0
  Ti  Ti2008  1  0.99001734  0.08329908  0.54327575  1.0
  Ti  Ti2009  1  0.99001734  0.20829908  0.54327575  1.0
  Ti  Ti2010  1  0.99001734  0.33329908  0.54327575  1.0
  Ti  Ti2011  1  0.99001734  0.45829908  0.54327575  1.0
  Ti  Ti2012  1  0.99001734  0.58329908  0.54327575  1.0
  Ti  Ti2013  1  0.99001734  0.70829908  0.54327575  1.0
  Ti  Ti2014  1  0.99001734  0.83329908  0.54327575  1.0
  Ti  Ti2015  1  0.99001734  0.95829908  0.54327575  1.0
  Ti  Ti2016  1  0.04292739  0.08329908  0.63851385  1.0
  Ti  Ti2017  1  0.04292739  0.20829908  0.63851385  1.0
  Ti  Ti2018  1  0.04292739  0.33329908  0.63851385  1.0
  Ti  Ti2019  1  0.04292739  0.45829908  0.63851385  1.0
  Ti  Ti2020  1  0.04292739  0.58329908  0.63851385  1.0
  Ti  Ti2021  1  0.04292739  0.70829908  0.63851385  1.0
  Ti  Ti2022  1  0.04292739  0.83329908  0.63851385  1.0
  Ti  Ti2023  1  0.04292739  0.95829908  0.63851385  1.0
  Ti  Ti2024  1  0.15403850  0.08329908  0.63851385  1.0
  Ti  Ti2025  1  0.15403850  0.20829908  0.63851385  1.0
  Ti  Ti2026  1  0.15403850  0.33329908  0.63851385  1.0
  Ti  Ti2027  1  0.15403850  0.45829908  0.63851385  1.0
  Ti  Ti2028  1  0.15403850  0.58329908  0.63851385  1.0
  Ti  Ti2029  1  0.15403850  0.70829908  0.63851385  1.0
  Ti  Ti2030  1  0.15403850  0.83329908  0.63851385  1.0
  Ti  Ti2031  1  0.15403850  0.95829908  0.63851385  1.0
  Ti  Ti2032  1  0.26514961  0.08329908  0.63851385  1.0
  Ti  Ti2033  1  0.26514961  0.20829908  0.63851385  1.0
  Ti  Ti2034  1  0.26514961  0.33329908  0.63851385  1.0
  Ti  Ti2035  1  0.26514961  0.45829908  0.63851385  1.0
  Ti  Ti2036  1  0.26514961  0.58329908  0.63851385  1.0
  Ti  Ti2037  1  0.26514961  0.70829908  0.63851385  1.0
  Ti  Ti2038  1  0.26514961  0.83329908  0.63851385  1.0
  Ti  Ti2039  1  0.26514961  0.95829908  0.63851385  1.0
  Ti  Ti2040  1  0.37626073  0.08329908  0.63851385  1.0
  Ti  Ti2041  1  0.37626073  0.20829908  0.63851385  1.0
  Ti  Ti2042  1  0.37626073  0.33329908  0.63851385  1.0
  Ti  Ti2043  1  0.37626073  0.45829908  0.63851385  1.0
  Ti  Ti2044  1  0.37626073  0.58329908  0.63851385  1.0
  Ti  Ti2045  1  0.37626073  0.70829908  0.63851385  1.0
  Ti  Ti2046  1  0.37626073  0.83329908  0.63851385  1.0
  Ti  Ti2047  1  0.37626073  0.95829908  0.63851385  1.0
  Ti  Ti2048  1  0.48737184  0.08329908  0.63851385  1.0
  Ti  Ti2049  1  0.48737184  0.20829908  0.63851385  1.0
  Ti  Ti2050  1  0.48737184  0.33329908  0.63851385  1.0
  Ti  Ti2051  1  0.48737184  0.45829908  0.63851385  1.0
  Ti  Ti2052  1  0.48737184  0.58329908  0.63851385  1.0
  Ti  Ti2053  1  0.48737184  0.70829908  0.63851385  1.0
  Ti  Ti2054  1  0.48737184  0.83329908  0.63851385  1.0
  Ti  Ti2055  1  0.48737184  0.95829908  0.63851385  1.0
  Ti  Ti2056  1  0.59848295  0.08329908  0.63851385  1.0
  Ti  Ti2057  1  0.59848295  0.20829908  0.63851385  1.0
  Ti  Ti2058  1  0.59848295  0.33329908  0.63851385  1.0
  Ti  Ti2059  1  0.59848295  0.45829908  0.63851385  1.0
  Ti  Ti2060  1  0.59848295  0.58329908  0.63851385  1.0
  Ti  Ti2061  1  0.59848295  0.70829908  0.63851385  1.0
  Ti  Ti2062  1  0.59848295  0.83329908  0.63851385  1.0
  Ti  Ti2063  1  0.59848295  0.95829908  0.63851385  1.0
  Ti  Ti2064  1  0.70959406  0.08329908  0.63851385  1.0
  Ti  Ti2065  1  0.70959406  0.20829908  0.63851385  1.0
  Ti  Ti2066  1  0.70959406  0.33329908  0.63851385  1.0
  Ti  Ti2067  1  0.70959406  0.45829908  0.63851385  1.0
  Ti  Ti2068  1  0.70959406  0.58329908  0.63851385  1.0
  Ti  Ti2069  1  0.70959406  0.70829908  0.63851385  1.0
  Ti  Ti2070  1  0.70959406  0.83329908  0.63851385  1.0
  Ti  Ti2071  1  0.70959406  0.95829908  0.63851385  1.0
  Ti  Ti2072  1  0.82070517  0.08329908  0.63851385  1.0
  Ti  Ti2073  1  0.82070517  0.20829908  0.63851385  1.0
  Ti  Ti2074  1  0.82070517  0.33329908  0.63851385  1.0
  Ti  Ti2075  1  0.82070517  0.45829908  0.63851385  1.0
  Ti  Ti2076  1  0.82070517  0.58329908  0.63851385  1.0
  Ti  Ti2077  1  0.82070517  0.70829908  0.63851385  1.0
  Ti  Ti2078  1  0.82070517  0.83329908  0.63851385  1.0
  Ti  Ti2079  1  0.82070517  0.95829908  0.63851385  1.0
  Ti  Ti2080  1  0.93181628  0.08329908  0.63851385  1.0
  Ti  Ti2081  1  0.93181628  0.20829908  0.63851385  1.0
  Ti  Ti2082  1  0.93181628  0.33329908  0.63851385  1.0
  Ti  Ti2083  1  0.93181628  0.45829908  0.63851385  1.0
  Ti  Ti2084  1  0.93181628  0.58329908  0.63851385  1.0
  Ti  Ti2085  1  0.93181628  0.70829908  0.63851385  1.0
  Ti  Ti2086  1  0.93181628  0.83329908  0.63851385  1.0
  Ti  Ti2087  1  0.93181628  0.95829908  0.63851385  1.0
  Ti  Ti2088  1  0.01647237  0.08329908  0.59089480  1.0
  Ti  Ti2089  1  0.01647237  0.20829908  0.59089480  1.0
  Ti  Ti2090  1  0.01647237  0.33329908  0.59089480  1.0
  Ti  Ti2091  1  0.01647237  0.45829908  0.59089480  1.0
  Ti  Ti2092  1  0.01647237  0.58329908  0.59089480  1.0
  Ti  Ti2093  1  0.01647237  0.70829908  0.59089480  1.0
  Ti  Ti2094  1  0.01647237  0.83329908  0.59089480  1.0
  Ti  Ti2095  1  0.01647237  0.95829908  0.59089480  1.0
  Ti  Ti2096  1  0.12758348  0.08329908  0.59089480  1.0
  Ti  Ti2097  1  0.12758348  0.20829908  0.59089480  1.0
  Ti  Ti2098  1  0.12758348  0.33329908  0.59089480  1.0
  Ti  Ti2099  1  0.12758348  0.45829908  0.59089480  1.0
  Ti  Ti2100  1  0.12758348  0.58329908  0.59089480  1.0
  Ti  Ti2101  1  0.12758348  0.70829908  0.59089480  1.0
  Ti  Ti2102  1  0.12758348  0.83329908  0.59089480  1.0
  Ti  Ti2103  1  0.12758348  0.95829908  0.59089480  1.0
  Ti  Ti2104  1  0.23869459  0.08329908  0.59089480  1.0
  Ti  Ti2105  1  0.23869459  0.20829908  0.59089480  1.0
  Ti  Ti2106  1  0.23869459  0.33329908  0.59089480  1.0
  Ti  Ti2107  1  0.23869459  0.45829908  0.59089480  1.0
  Ti  Ti2108  1  0.23869459  0.58329908  0.59089480  1.0
  Ti  Ti2109  1  0.23869459  0.70829908  0.59089480  1.0
  Ti  Ti2110  1  0.23869459  0.83329908  0.59089480  1.0
  Ti  Ti2111  1  0.23869459  0.95829908  0.59089480  1.0
  Ti  Ti2112  1  0.34980570  0.08329908  0.59089480  1.0
  Ti  Ti2113  1  0.34980570  0.20829908  0.59089480  1.0
  Ti  Ti2114  1  0.34980570  0.33329908  0.59089480  1.0
  Ti  Ti2115  1  0.34980570  0.45829908  0.59089480  1.0
  Ti  Ti2116  1  0.34980570  0.58329908  0.59089480  1.0
  Ti  Ti2117  1  0.34980570  0.70829908  0.59089480  1.0
  Ti  Ti2118  1  0.34980570  0.83329908  0.59089480  1.0
  Ti  Ti2119  1  0.34980570  0.95829908  0.59089480  1.0
  Ti  Ti2120  1  0.46091681  0.08329908  0.59089480  1.0
  Ti  Ti2121  1  0.46091681  0.20829908  0.59089480  1.0
  Ti  Ti2122  1  0.46091681  0.33329908  0.59089480  1.0
  Ti  Ti2123  1  0.46091681  0.45829908  0.59089480  1.0
  Ti  Ti2124  1  0.46091681  0.58329908  0.59089480  1.0
  Ti  Ti2125  1  0.46091681  0.70829908  0.59089480  1.0
  Ti  Ti2126  1  0.46091681  0.83329908  0.59089480  1.0
  Ti  Ti2127  1  0.46091681  0.95829908  0.59089480  1.0
  Ti  Ti2128  1  0.57202792  0.08329908  0.59089480  1.0
  Ti  Ti2129  1  0.57202792  0.20829908  0.59089480  1.0
  Ti  Ti2130  1  0.57202792  0.33329908  0.59089480  1.0
  Ti  Ti2131  1  0.57202792  0.45829908  0.59089480  1.0
  Ti  Ti2132  1  0.57202792  0.58329908  0.59089480  1.0
  Ti  Ti2133  1  0.57202792  0.70829908  0.59089480  1.0
  Ti  Ti2134  1  0.57202792  0.83329908  0.59089480  1.0
  Ti  Ti2135  1  0.57202792  0.95829908  0.59089480  1.0
  Ti  Ti2136  1  0.68313903  0.08329908  0.59089480  1.0
  Ti  Ti2137  1  0.68313903  0.20829908  0.59089480  1.0
  Ti  Ti2138  1  0.68313903  0.33329908  0.59089480  1.0
  Ti  Ti2139  1  0.68313903  0.45829908  0.59089480  1.0
  Ti  Ti2140  1  0.68313903  0.58329908  0.59089480  1.0
  Ti  Ti2141  1  0.68313903  0.70829908  0.59089480  1.0
  Ti  Ti2142  1  0.68313903  0.83329908  0.59089480  1.0
  Ti  Ti2143  1  0.68313903  0.95829908  0.59089480  1.0
  Ti  Ti2144  1  0.79425014  0.08329908  0.59089480  1.0
  Ti  Ti2145  1  0.79425014  0.20829908  0.59089480  1.0
  Ti  Ti2146  1  0.79425014  0.33329908  0.59089480  1.0
  Ti  Ti2147  1  0.79425014  0.45829908  0.59089480  1.0
  Ti  Ti2148  1  0.79425014  0.58329908  0.59089480  1.0
  Ti  Ti2149  1  0.79425014  0.70829908  0.59089480  1.0
  Ti  Ti2150  1  0.79425014  0.83329908  0.59089480  1.0
  Ti  Ti2151  1  0.79425014  0.95829908  0.59089480  1.0
  Ti  Ti2152  1  0.90536125  0.08329908  0.59089480  1.0
  Ti  Ti2153  1  0.90536125  0.20829908  0.59089480  1.0
  Ti  Ti2154  1  0.90536125  0.33329908  0.59089480  1.0
  Ti  Ti2155  1  0.90536125  0.45829908  0.59089480  1.0
  Ti  Ti2156  1  0.90536125  0.58329908  0.59089480  1.0
  Ti  Ti2157  1  0.90536125  0.70829908  0.59089480  1.0
  Ti  Ti2158  1  0.90536125  0.83329908  0.59089480  1.0
  Ti  Ti2159  1  0.90536125  0.95829908  0.59089480  1.0
  Ti  Ti2160  1  0.00625238  0.02079908  0.56539354  1.0
  Ti  Ti2161  1  0.00625238  0.14579908  0.56539354  1.0
  Ti  Ti2162  1  0.00625238  0.27079908  0.56539354  1.0
  Ti  Ti2163  1  0.00625238  0.39579908  0.56539354  1.0
  Ti  Ti2164  1  0.00625238  0.52079908  0.56539354  1.0
  Ti  Ti2165  1  0.00625238  0.64579908  0.56539354  1.0
  Ti  Ti2166  1  0.00625238  0.77079908  0.56539354  1.0
  Ti  Ti2167  1  0.00625238  0.89579908  0.56539354  1.0
  Ti  Ti2168  1  0.11736349  0.02079908  0.56539354  1.0
  Ti  Ti2169  1  0.11736349  0.14579908  0.56539354  1.0
  Ti  Ti2170  1  0.11736349  0.27079908  0.56539354  1.0
  Ti  Ti2171  1  0.11736349  0.39579908  0.56539354  1.0
  Ti  Ti2172  1  0.11736349  0.52079908  0.56539354  1.0
  Ti  Ti2173  1  0.11736349  0.64579908  0.56539354  1.0
  Ti  Ti2174  1  0.11736349  0.77079908  0.56539354  1.0
  Ti  Ti2175  1  0.11736349  0.89579908  0.56539354  1.0
  Ti  Ti2176  1  0.22847460  0.02079908  0.56539354  1.0
  Ti  Ti2177  1  0.22847460  0.14579908  0.56539354  1.0
  Ti  Ti2178  1  0.22847460  0.27079908  0.56539354  1.0
  Ti  Ti2179  1  0.22847460  0.39579908  0.56539354  1.0
  Ti  Ti2180  1  0.22847460  0.52079908  0.56539354  1.0
  Ti  Ti2181  1  0.22847460  0.64579908  0.56539354  1.0
  Ti  Ti2182  1  0.22847460  0.77079908  0.56539354  1.0
  Ti  Ti2183  1  0.22847460  0.89579908  0.56539354  1.0
  Ti  Ti2184  1  0.33958571  0.02079908  0.56539354  1.0
  Ti  Ti2185  1  0.33958571  0.14579908  0.56539354  1.0
  Ti  Ti2186  1  0.33958571  0.27079908  0.56539354  1.0
  Ti  Ti2187  1  0.33958571  0.39579908  0.56539354  1.0
  Ti  Ti2188  1  0.33958571  0.52079908  0.56539354  1.0
  Ti  Ti2189  1  0.33958571  0.64579908  0.56539354  1.0
  Ti  Ti2190  1  0.33958571  0.77079908  0.56539354  1.0
  Ti  Ti2191  1  0.33958571  0.89579908  0.56539354  1.0
  Ti  Ti2192  1  0.45069682  0.02079908  0.56539354  1.0
  Ti  Ti2193  1  0.45069682  0.14579908  0.56539354  1.0
  Ti  Ti2194  1  0.45069682  0.27079908  0.56539354  1.0
  Ti  Ti2195  1  0.45069682  0.39579908  0.56539354  1.0
  Ti  Ti2196  1  0.45069682  0.52079908  0.56539354  1.0
  Ti  Ti2197  1  0.45069682  0.64579908  0.56539354  1.0
  Ti  Ti2198  1  0.45069682  0.77079908  0.56539354  1.0
  Ti  Ti2199  1  0.45069682  0.89579908  0.56539354  1.0
  Ti  Ti2200  1  0.56180793  0.02079908  0.56539354  1.0
  Ti  Ti2201  1  0.56180793  0.14579908  0.56539354  1.0
  Ti  Ti2202  1  0.56180793  0.27079908  0.56539354  1.0
  Ti  Ti2203  1  0.56180793  0.39579908  0.56539354  1.0
  Ti  Ti2204  1  0.56180793  0.52079908  0.56539354  1.0
  Ti  Ti2205  1  0.56180793  0.64579908  0.56539354  1.0
  Ti  Ti2206  1  0.56180793  0.77079908  0.56539354  1.0
  Ti  Ti2207  1  0.56180793  0.89579908  0.56539354  1.0
  Ti  Ti2208  1  0.67291905  0.02079908  0.56539354  1.0
  Ti  Ti2209  1  0.67291905  0.14579908  0.56539354  1.0
  Ti  Ti2210  1  0.67291905  0.27079908  0.56539354  1.0
  Ti  Ti2211  1  0.67291905  0.39579908  0.56539354  1.0
  Ti  Ti2212  1  0.67291905  0.52079908  0.56539354  1.0
  Ti  Ti2213  1  0.67291905  0.64579908  0.56539354  1.0
  Ti  Ti2214  1  0.67291905  0.77079908  0.56539354  1.0
  Ti  Ti2215  1  0.67291905  0.89579908  0.56539354  1.0
  Ti  Ti2216  1  0.78403016  0.02079908  0.56539354  1.0
  Ti  Ti2217  1  0.78403016  0.14579908  0.56539354  1.0
  Ti  Ti2218  1  0.78403016  0.27079908  0.56539354  1.0
  Ti  Ti2219  1  0.78403016  0.39579908  0.56539354  1.0
  Ti  Ti2220  1  0.78403016  0.52079908  0.56539354  1.0
  Ti  Ti2221  1  0.78403016  0.64579908  0.56539354  1.0
  Ti  Ti2222  1  0.78403016  0.77079908  0.56539354  1.0
  Ti  Ti2223  1  0.78403016  0.89579908  0.56539354  1.0
  Ti  Ti2224  1  0.89514127  0.02079908  0.56539354  1.0
  Ti  Ti2225  1  0.89514127  0.14579908  0.56539354  1.0
  Ti  Ti2226  1  0.89514127  0.27079908  0.56539354  1.0
  Ti  Ti2227  1  0.89514127  0.39579908  0.56539354  1.0
  Ti  Ti2228  1  0.89514127  0.52079908  0.56539354  1.0
  Ti  Ti2229  1  0.89514127  0.64579908  0.56539354  1.0
  Ti  Ti2230  1  0.89514127  0.77079908  0.56539354  1.0
  Ti  Ti2231  1  0.89514127  0.89579908  0.56539354  1.0
  Ti  Ti2232  1  0.09090846  0.02079908  0.51777450  1.0
  Ti  Ti2233  1  0.09090846  0.14579908  0.51777450  1.0
  Ti  Ti2234  1  0.09090846  0.27079908  0.51777450  1.0
  Ti  Ti2235  1  0.09090846  0.39579908  0.51777450  1.0
  Ti  Ti2236  1  0.09090846  0.52079908  0.51777450  1.0
  Ti  Ti2237  1  0.09090846  0.64579908  0.51777450  1.0
  Ti  Ti2238  1  0.09090846  0.77079908  0.51777450  1.0
  Ti  Ti2239  1  0.09090846  0.89579908  0.51777450  1.0
  Ti  Ti2240  1  0.20201957  0.02079908  0.51777450  1.0
  Ti  Ti2241  1  0.20201957  0.14579908  0.51777450  1.0
  Ti  Ti2242  1  0.20201957  0.27079908  0.51777450  1.0
  Ti  Ti2243  1  0.20201957  0.39579908  0.51777450  1.0
  Ti  Ti2244  1  0.20201957  0.52079908  0.51777450  1.0
  Ti  Ti2245  1  0.20201957  0.64579908  0.51777450  1.0
  Ti  Ti2246  1  0.20201957  0.77079908  0.51777450  1.0
  Ti  Ti2247  1  0.20201957  0.89579908  0.51777450  1.0
  Ti  Ti2248  1  0.31313069  0.02079908  0.51777450  1.0
  Ti  Ti2249  1  0.31313069  0.14579908  0.51777450  1.0
  Ti  Ti2250  1  0.31313069  0.27079908  0.51777450  1.0
  Ti  Ti2251  1  0.31313069  0.39579908  0.51777450  1.0
  Ti  Ti2252  1  0.31313069  0.52079908  0.51777450  1.0
  Ti  Ti2253  1  0.31313069  0.64579908  0.51777450  1.0
  Ti  Ti2254  1  0.31313069  0.77079908  0.51777450  1.0
  Ti  Ti2255  1  0.31313069  0.89579908  0.51777450  1.0
  Ti  Ti2256  1  0.42424180  0.02079908  0.51777450  1.0
  Ti  Ti2257  1  0.42424180  0.14579908  0.51777450  1.0
  Ti  Ti2258  1  0.42424180  0.27079908  0.51777450  1.0
  Ti  Ti2259  1  0.42424180  0.39579908  0.51777450  1.0
  Ti  Ti2260  1  0.42424180  0.52079908  0.51777450  1.0
  Ti  Ti2261  1  0.42424180  0.64579908  0.51777450  1.0
  Ti  Ti2262  1  0.42424180  0.77079908  0.51777450  1.0
  Ti  Ti2263  1  0.42424180  0.89579908  0.51777450  1.0
  Ti  Ti2264  1  0.53535291  0.02079908  0.51777450  1.0
  Ti  Ti2265  1  0.53535291  0.14579908  0.51777450  1.0
  Ti  Ti2266  1  0.53535291  0.27079908  0.51777450  1.0
  Ti  Ti2267  1  0.53535291  0.39579908  0.51777450  1.0
  Ti  Ti2268  1  0.53535291  0.52079908  0.51777450  1.0
  Ti  Ti2269  1  0.53535291  0.64579908  0.51777450  1.0
  Ti  Ti2270  1  0.53535291  0.77079908  0.51777450  1.0
  Ti  Ti2271  1  0.53535291  0.89579908  0.51777450  1.0
  Ti  Ti2272  1  0.64646402  0.02079908  0.51777450  1.0
  Ti  Ti2273  1  0.64646402  0.14579908  0.51777450  1.0
  Ti  Ti2274  1  0.64646402  0.27079908  0.51777450  1.0
  Ti  Ti2275  1  0.64646402  0.39579908  0.51777450  1.0
  Ti  Ti2276  1  0.64646402  0.52079908  0.51777450  1.0
  Ti  Ti2277  1  0.64646402  0.64579908  0.51777450  1.0
  Ti  Ti2278  1  0.64646402  0.77079908  0.51777450  1.0
  Ti  Ti2279  1  0.64646402  0.89579908  0.51777450  1.0
  Ti  Ti2280  1  0.75757513  0.02079908  0.51777450  1.0
  Ti  Ti2281  1  0.75757513  0.14579908  0.51777450  1.0
  Ti  Ti2282  1  0.75757513  0.27079908  0.51777450  1.0
  Ti  Ti2283  1  0.75757513  0.39579908  0.51777450  1.0
  Ti  Ti2284  1  0.75757513  0.52079908  0.51777450  1.0
  Ti  Ti2285  1  0.75757513  0.64579908  0.51777450  1.0
  Ti  Ti2286  1  0.75757513  0.77079908  0.51777450  1.0
  Ti  Ti2287  1  0.75757513  0.89579908  0.51777450  1.0
  Ti  Ti2288  1  0.86868624  0.02079908  0.51777450  1.0
  Ti  Ti2289  1  0.86868624  0.14579908  0.51777450  1.0
  Ti  Ti2290  1  0.86868624  0.27079908  0.51777450  1.0
  Ti  Ti2291  1  0.86868624  0.39579908  0.51777450  1.0
  Ti  Ti2292  1  0.86868624  0.52079908  0.51777450  1.0
  Ti  Ti2293  1  0.86868624  0.64579908  0.51777450  1.0
  Ti  Ti2294  1  0.86868624  0.77079908  0.51777450  1.0
  Ti  Ti2295  1  0.86868624  0.89579908  0.51777450  1.0
  Ti  Ti2296  1  0.97979735  0.02079908  0.51777450  1.0
  Ti  Ti2297  1  0.97979735  0.14579908  0.51777450  1.0
  Ti  Ti2298  1  0.97979735  0.27079908  0.51777450  1.0
  Ti  Ti2299  1  0.97979735  0.39579908  0.51777450  1.0
  Ti  Ti2300  1  0.97979735  0.52079908  0.51777450  1.0
  Ti  Ti2301  1  0.97979735  0.64579908  0.51777450  1.0
  Ti  Ti2302  1  0.97979735  0.77079908  0.51777450  1.0
  Ti  Ti2303  1  0.97979735  0.89579908  0.51777450  1.0
  Ti  Ti2304  1  0.03270740  0.02079908  0.61301259  1.0
  Ti  Ti2305  1  0.03270740  0.14579908  0.61301259  1.0
  Ti  Ti2306  1  0.03270740  0.27079908  0.61301259  1.0
  Ti  Ti2307  1  0.03270740  0.39579908  0.61301259  1.0
  Ti  Ti2308  1  0.03270740  0.52079908  0.61301259  1.0
  Ti  Ti2309  1  0.03270740  0.64579908  0.61301259  1.0
  Ti  Ti2310  1  0.03270740  0.77079908  0.61301259  1.0
  Ti  Ti2311  1  0.03270740  0.89579908  0.61301259  1.0
  Ti  Ti2312  1  0.14381852  0.02079908  0.61301259  1.0
  Ti  Ti2313  1  0.14381852  0.14579908  0.61301259  1.0
  Ti  Ti2314  1  0.14381852  0.27079908  0.61301259  1.0
  Ti  Ti2315  1  0.14381852  0.39579908  0.61301259  1.0
  Ti  Ti2316  1  0.14381852  0.52079908  0.61301259  1.0
  Ti  Ti2317  1  0.14381852  0.64579908  0.61301259  1.0
  Ti  Ti2318  1  0.14381852  0.77079908  0.61301259  1.0
  Ti  Ti2319  1  0.14381852  0.89579908  0.61301259  1.0
  Ti  Ti2320  1  0.25492963  0.02079908  0.61301259  1.0
  Ti  Ti2321  1  0.25492963  0.14579908  0.61301259  1.0
  Ti  Ti2322  1  0.25492963  0.27079908  0.61301259  1.0
  Ti  Ti2323  1  0.25492963  0.39579908  0.61301259  1.0
  Ti  Ti2324  1  0.25492963  0.52079908  0.61301259  1.0
  Ti  Ti2325  1  0.25492963  0.64579908  0.61301259  1.0
  Ti  Ti2326  1  0.25492963  0.77079908  0.61301259  1.0
  Ti  Ti2327  1  0.25492963  0.89579908  0.61301259  1.0
  Ti  Ti2328  1  0.36604074  0.02079908  0.61301259  1.0
  Ti  Ti2329  1  0.36604074  0.14579908  0.61301259  1.0
  Ti  Ti2330  1  0.36604074  0.27079908  0.61301259  1.0
  Ti  Ti2331  1  0.36604074  0.39579908  0.61301259  1.0
  Ti  Ti2332  1  0.36604074  0.52079908  0.61301259  1.0
  Ti  Ti2333  1  0.36604074  0.64579908  0.61301259  1.0
  Ti  Ti2334  1  0.36604074  0.77079908  0.61301259  1.0
  Ti  Ti2335  1  0.36604074  0.89579908  0.61301259  1.0
  Ti  Ti2336  1  0.47715185  0.02079908  0.61301259  1.0
  Ti  Ti2337  1  0.47715185  0.14579908  0.61301259  1.0
  Ti  Ti2338  1  0.47715185  0.27079908  0.61301259  1.0
  Ti  Ti2339  1  0.47715185  0.39579908  0.61301259  1.0
  Ti  Ti2340  1  0.47715185  0.52079908  0.61301259  1.0
  Ti  Ti2341  1  0.47715185  0.64579908  0.61301259  1.0
  Ti  Ti2342  1  0.47715185  0.77079908  0.61301259  1.0
  Ti  Ti2343  1  0.47715185  0.89579908  0.61301259  1.0
  Ti  Ti2344  1  0.58826296  0.02079908  0.61301259  1.0
  Ti  Ti2345  1  0.58826296  0.14579908  0.61301259  1.0
  Ti  Ti2346  1  0.58826296  0.27079908  0.61301259  1.0
  Ti  Ti2347  1  0.58826296  0.39579908  0.61301259  1.0
  Ti  Ti2348  1  0.58826296  0.52079908  0.61301259  1.0
  Ti  Ti2349  1  0.58826296  0.64579908  0.61301259  1.0
  Ti  Ti2350  1  0.58826296  0.77079908  0.61301259  1.0
  Ti  Ti2351  1  0.58826296  0.89579908  0.61301259  1.0
  Ti  Ti2352  1  0.69937407  0.02079908  0.61301259  1.0
  Ti  Ti2353  1  0.69937407  0.14579908  0.61301259  1.0
  Ti  Ti2354  1  0.69937407  0.27079908  0.61301259  1.0
  Ti  Ti2355  1  0.69937407  0.39579908  0.61301259  1.0
  Ti  Ti2356  1  0.69937407  0.52079908  0.61301259  1.0
  Ti  Ti2357  1  0.69937407  0.64579908  0.61301259  1.0
  Ti  Ti2358  1  0.69937407  0.77079908  0.61301259  1.0
  Ti  Ti2359  1  0.69937407  0.89579908  0.61301259  1.0
  Ti  Ti2360  1  0.81048518  0.02079908  0.61301259  1.0
  Ti  Ti2361  1  0.81048518  0.14579908  0.61301259  1.0
  Ti  Ti2362  1  0.81048518  0.27079908  0.61301259  1.0
  Ti  Ti2363  1  0.81048518  0.39579908  0.61301259  1.0
  Ti  Ti2364  1  0.81048518  0.52079908  0.61301259  1.0
  Ti  Ti2365  1  0.81048518  0.64579908  0.61301259  1.0
  Ti  Ti2366  1  0.81048518  0.77079908  0.61301259  1.0
  Ti  Ti2367  1  0.81048518  0.89579908  0.61301259  1.0
  Ti  Ti2368  1  0.92159629  0.02079908  0.61301259  1.0
  Ti  Ti2369  1  0.92159629  0.14579908  0.61301259  1.0
  Ti  Ti2370  1  0.92159629  0.27079908  0.61301259  1.0
  Ti  Ti2371  1  0.92159629  0.39579908  0.61301259  1.0
  Ti  Ti2372  1  0.92159629  0.52079908  0.61301259  1.0
  Ti  Ti2373  1  0.92159629  0.64579908  0.61301259  1.0
  Ti  Ti2374  1  0.92159629  0.77079908  0.61301259  1.0
  Ti  Ti2375  1  0.92159629  0.89579908  0.61301259  1.0
  Ti  Ti2376  1  0.03234538  0.10420092  0.51946623  1.0
  Ti  Ti2377  1  0.03234538  0.22920092  0.51946623  1.0
  Ti  Ti2378  1  0.03234538  0.35420092  0.51946623  1.0
  Ti  Ti2379  1  0.03234538  0.47920092  0.51946623  1.0
  Ti  Ti2380  1  0.03234538  0.60420092  0.51946623  1.0
  Ti  Ti2381  1  0.03234538  0.72920092  0.51946623  1.0
  Ti  Ti2382  1  0.03234538  0.85420092  0.51946623  1.0
  Ti  Ti2383  1  0.03234538  0.97920092  0.51946623  1.0
  Ti  Ti2384  1  0.14345649  0.10420092  0.51946623  1.0
  Ti  Ti2385  1  0.14345649  0.22920092  0.51946623  1.0
  Ti  Ti2386  1  0.14345649  0.35420092  0.51946623  1.0
  Ti  Ti2387  1  0.14345649  0.47920092  0.51946623  1.0
  Ti  Ti2388  1  0.14345649  0.60420092  0.51946623  1.0
  Ti  Ti2389  1  0.14345649  0.72920092  0.51946623  1.0
  Ti  Ti2390  1  0.14345649  0.85420092  0.51946623  1.0
  Ti  Ti2391  1  0.14345649  0.97920092  0.51946623  1.0
  Ti  Ti2392  1  0.25456760  0.10420092  0.51946623  1.0
  Ti  Ti2393  1  0.25456760  0.22920092  0.51946623  1.0
  Ti  Ti2394  1  0.25456760  0.35420092  0.51946623  1.0
  Ti  Ti2395  1  0.25456760  0.47920092  0.51946623  1.0
  Ti  Ti2396  1  0.25456760  0.60420092  0.51946623  1.0
  Ti  Ti2397  1  0.25456760  0.72920092  0.51946623  1.0
  Ti  Ti2398  1  0.25456760  0.85420092  0.51946623  1.0
  Ti  Ti2399  1  0.25456760  0.97920092  0.51946623  1.0
  Ti  Ti2400  1  0.36567871  0.10420092  0.51946623  1.0
  Ti  Ti2401  1  0.36567871  0.22920092  0.51946623  1.0
  Ti  Ti2402  1  0.36567871  0.35420092  0.51946623  1.0
  Ti  Ti2403  1  0.36567871  0.47920092  0.51946623  1.0
  Ti  Ti2404  1  0.36567871  0.60420092  0.51946623  1.0
  Ti  Ti2405  1  0.36567871  0.72920092  0.51946623  1.0
  Ti  Ti2406  1  0.36567871  0.85420092  0.51946623  1.0
  Ti  Ti2407  1  0.36567871  0.97920092  0.51946623  1.0
  Ti  Ti2408  1  0.47678983  0.10420092  0.51946623  1.0
  Ti  Ti2409  1  0.47678983  0.22920092  0.51946623  1.0
  Ti  Ti2410  1  0.47678983  0.35420092  0.51946623  1.0
  Ti  Ti2411  1  0.47678983  0.47920092  0.51946623  1.0
  Ti  Ti2412  1  0.47678983  0.60420092  0.51946623  1.0
  Ti  Ti2413  1  0.47678983  0.72920092  0.51946623  1.0
  Ti  Ti2414  1  0.47678983  0.85420092  0.51946623  1.0
  Ti  Ti2415  1  0.47678983  0.97920092  0.51946623  1.0
  Ti  Ti2416  1  0.58790094  0.10420092  0.51946623  1.0
  Ti  Ti2417  1  0.58790094  0.22920092  0.51946623  1.0
  Ti  Ti2418  1  0.58790094  0.35420092  0.51946623  1.0
  Ti  Ti2419  1  0.58790094  0.47920092  0.51946623  1.0
  Ti  Ti2420  1  0.58790094  0.60420092  0.51946623  1.0
  Ti  Ti2421  1  0.58790094  0.72920092  0.51946623  1.0
  Ti  Ti2422  1  0.58790094  0.85420092  0.51946623  1.0
  Ti  Ti2423  1  0.58790094  0.97920092  0.51946623  1.0
  Ti  Ti2424  1  0.69901205  0.10420092  0.51946623  1.0
  Ti  Ti2425  1  0.69901205  0.22920092  0.51946623  1.0
  Ti  Ti2426  1  0.69901205  0.35420092  0.51946623  1.0
  Ti  Ti2427  1  0.69901205  0.47920092  0.51946623  1.0
  Ti  Ti2428  1  0.69901205  0.60420092  0.51946623  1.0
  Ti  Ti2429  1  0.69901205  0.72920092  0.51946623  1.0
  Ti  Ti2430  1  0.69901205  0.85420092  0.51946623  1.0
  Ti  Ti2431  1  0.69901205  0.97920092  0.51946623  1.0
  Ti  Ti2432  1  0.81012316  0.10420092  0.51946623  1.0
  Ti  Ti2433  1  0.81012316  0.22920092  0.51946623  1.0
  Ti  Ti2434  1  0.81012316  0.35420092  0.51946623  1.0
  Ti  Ti2435  1  0.81012316  0.47920092  0.51946623  1.0
  Ti  Ti2436  1  0.81012316  0.60420092  0.51946623  1.0
  Ti  Ti2437  1  0.81012316  0.72920092  0.51946623  1.0
  Ti  Ti2438  1  0.81012316  0.85420092  0.51946623  1.0
  Ti  Ti2439  1  0.81012316  0.97920092  0.51946623  1.0
  Ti  Ti2440  1  0.92123427  0.10420092  0.51946623  1.0
  Ti  Ti2441  1  0.92123427  0.22920092  0.51946623  1.0
  Ti  Ti2442  1  0.92123427  0.35420092  0.51946623  1.0
  Ti  Ti2443  1  0.92123427  0.47920092  0.51946623  1.0
  Ti  Ti2444  1  0.92123427  0.60420092  0.51946623  1.0
  Ti  Ti2445  1  0.92123427  0.72920092  0.51946623  1.0
  Ti  Ti2446  1  0.92123427  0.85420092  0.51946623  1.0
  Ti  Ti2447  1  0.92123427  0.97920092  0.51946623  1.0
  Ti  Ti2448  1  0.08525543  0.10420092  0.61470432  1.0
  Ti  Ti2449  1  0.08525543  0.22920092  0.61470432  1.0
  Ti  Ti2450  1  0.08525543  0.35420092  0.61470432  1.0
  Ti  Ti2451  1  0.08525543  0.47920092  0.61470432  1.0
  Ti  Ti2452  1  0.08525543  0.60420092  0.61470432  1.0
  Ti  Ti2453  1  0.08525543  0.72920092  0.61470432  1.0
  Ti  Ti2454  1  0.08525543  0.85420092  0.61470432  1.0
  Ti  Ti2455  1  0.08525543  0.97920092  0.61470432  1.0
  Ti  Ti2456  1  0.19636655  0.10420092  0.61470432  1.0
  Ti  Ti2457  1  0.19636655  0.22920092  0.61470432  1.0
  Ti  Ti2458  1  0.19636655  0.35420092  0.61470432  1.0
  Ti  Ti2459  1  0.19636655  0.47920092  0.61470432  1.0
  Ti  Ti2460  1  0.19636655  0.60420092  0.61470432  1.0
  Ti  Ti2461  1  0.19636655  0.72920092  0.61470432  1.0
  Ti  Ti2462  1  0.19636655  0.85420092  0.61470432  1.0
  Ti  Ti2463  1  0.19636655  0.97920092  0.61470432  1.0
  Ti  Ti2464  1  0.30747766  0.10420092  0.61470432  1.0
  Ti  Ti2465  1  0.30747766  0.22920092  0.61470432  1.0
  Ti  Ti2466  1  0.30747766  0.35420092  0.61470432  1.0
  Ti  Ti2467  1  0.30747766  0.47920092  0.61470432  1.0
  Ti  Ti2468  1  0.30747766  0.60420092  0.61470432  1.0
  Ti  Ti2469  1  0.30747766  0.72920092  0.61470432  1.0
  Ti  Ti2470  1  0.30747766  0.85420092  0.61470432  1.0
  Ti  Ti2471  1  0.30747766  0.97920092  0.61470432  1.0
  Ti  Ti2472  1  0.41858877  0.10420092  0.61470432  1.0
  Ti  Ti2473  1  0.41858877  0.22920092  0.61470432  1.0
  Ti  Ti2474  1  0.41858877  0.35420092  0.61470432  1.0
  Ti  Ti2475  1  0.41858877  0.47920092  0.61470432  1.0
  Ti  Ti2476  1  0.41858877  0.60420092  0.61470432  1.0
  Ti  Ti2477  1  0.41858877  0.72920092  0.61470432  1.0
  Ti  Ti2478  1  0.41858877  0.85420092  0.61470432  1.0
  Ti  Ti2479  1  0.41858877  0.97920092  0.61470432  1.0
  Ti  Ti2480  1  0.52969988  0.10420092  0.61470432  1.0
  Ti  Ti2481  1  0.52969988  0.22920092  0.61470432  1.0
  Ti  Ti2482  1  0.52969988  0.35420092  0.61470432  1.0
  Ti  Ti2483  1  0.52969988  0.47920092  0.61470432  1.0
  Ti  Ti2484  1  0.52969988  0.60420092  0.61470432  1.0
  Ti  Ti2485  1  0.52969988  0.72920092  0.61470432  1.0
  Ti  Ti2486  1  0.52969988  0.85420092  0.61470432  1.0
  Ti  Ti2487  1  0.52969988  0.97920092  0.61470432  1.0
  Ti  Ti2488  1  0.64081099  0.10420092  0.61470432  1.0
  Ti  Ti2489  1  0.64081099  0.22920092  0.61470432  1.0
  Ti  Ti2490  1  0.64081099  0.35420092  0.61470432  1.0
  Ti  Ti2491  1  0.64081099  0.47920092  0.61470432  1.0
  Ti  Ti2492  1  0.64081099  0.60420092  0.61470432  1.0
  Ti  Ti2493  1  0.64081099  0.72920092  0.61470432  1.0
  Ti  Ti2494  1  0.64081099  0.85420092  0.61470432  1.0
  Ti  Ti2495  1  0.64081099  0.97920092  0.61470432  1.0
  Ti  Ti2496  1  0.75192210  0.10420092  0.61470432  1.0
  Ti  Ti2497  1  0.75192210  0.22920092  0.61470432  1.0
  Ti  Ti2498  1  0.75192210  0.35420092  0.61470432  1.0
  Ti  Ti2499  1  0.75192210  0.47920092  0.61470432  1.0
  Ti  Ti2500  1  0.75192210  0.60420092  0.61470432  1.0
  Ti  Ti2501  1  0.75192210  0.72920092  0.61470432  1.0
  Ti  Ti2502  1  0.75192210  0.85420092  0.61470432  1.0
  Ti  Ti2503  1  0.75192210  0.97920092  0.61470432  1.0
  Ti  Ti2504  1  0.86303321  0.10420092  0.61470432  1.0
  Ti  Ti2505  1  0.86303321  0.22920092  0.61470432  1.0
  Ti  Ti2506  1  0.86303321  0.35420092  0.61470432  1.0
  Ti  Ti2507  1  0.86303321  0.47920092  0.61470432  1.0
  Ti  Ti2508  1  0.86303321  0.60420092  0.61470432  1.0
  Ti  Ti2509  1  0.86303321  0.72920092  0.61470432  1.0
  Ti  Ti2510  1  0.86303321  0.85420092  0.61470432  1.0
  Ti  Ti2511  1  0.86303321  0.97920092  0.61470432  1.0
  Ti  Ti2512  1  0.97414432  0.10420092  0.61470432  1.0
  Ti  Ti2513  1  0.97414432  0.22920092  0.61470432  1.0
  Ti  Ti2514  1  0.97414432  0.35420092  0.61470432  1.0
  Ti  Ti2515  1  0.97414432  0.47920092  0.61470432  1.0
  Ti  Ti2516  1  0.97414432  0.60420092  0.61470432  1.0
  Ti  Ti2517  1  0.97414432  0.72920092  0.61470432  1.0
  Ti  Ti2518  1  0.97414432  0.85420092  0.61470432  1.0
  Ti  Ti2519  1  0.97414432  0.97920092  0.61470432  1.0
  Ti  Ti2520  1  0.05880041  0.10420092  0.56708528  1.0
  Ti  Ti2521  1  0.05880041  0.22920092  0.56708528  1.0
  Ti  Ti2522  1  0.05880041  0.35420092  0.56708528  1.0
  Ti  Ti2523  1  0.05880041  0.47920092  0.56708528  1.0
  Ti  Ti2524  1  0.05880041  0.60420092  0.56708528  1.0
  Ti  Ti2525  1  0.05880041  0.72920092  0.56708528  1.0
  Ti  Ti2526  1  0.05880041  0.85420092  0.56708528  1.0
  Ti  Ti2527  1  0.05880041  0.97920092  0.56708528  1.0
  Ti  Ti2528  1  0.16991152  0.10420092  0.56708528  1.0
  Ti  Ti2529  1  0.16991152  0.22920092  0.56708528  1.0
  Ti  Ti2530  1  0.16991152  0.35420092  0.56708528  1.0
  Ti  Ti2531  1  0.16991152  0.47920092  0.56708528  1.0
  Ti  Ti2532  1  0.16991152  0.60420092  0.56708528  1.0
  Ti  Ti2533  1  0.16991152  0.72920092  0.56708528  1.0
  Ti  Ti2534  1  0.16991152  0.85420092  0.56708528  1.0
  Ti  Ti2535  1  0.16991152  0.97920092  0.56708528  1.0
  Ti  Ti2536  1  0.28102263  0.10420092  0.56708528  1.0
  Ti  Ti2537  1  0.28102263  0.22920092  0.56708528  1.0
  Ti  Ti2538  1  0.28102263  0.35420092  0.56708528  1.0
  Ti  Ti2539  1  0.28102263  0.47920092  0.56708528  1.0
  Ti  Ti2540  1  0.28102263  0.60420092  0.56708528  1.0
  Ti  Ti2541  1  0.28102263  0.72920092  0.56708528  1.0
  Ti  Ti2542  1  0.28102263  0.85420092  0.56708528  1.0
  Ti  Ti2543  1  0.28102263  0.97920092  0.56708528  1.0
  Ti  Ti2544  1  0.39213374  0.10420092  0.56708528  1.0
  Ti  Ti2545  1  0.39213374  0.22920092  0.56708528  1.0
  Ti  Ti2546  1  0.39213374  0.35420092  0.56708528  1.0
  Ti  Ti2547  1  0.39213374  0.47920092  0.56708528  1.0
  Ti  Ti2548  1  0.39213374  0.60420092  0.56708528  1.0
  Ti  Ti2549  1  0.39213374  0.72920092  0.56708528  1.0
  Ti  Ti2550  1  0.39213374  0.85420092  0.56708528  1.0
  Ti  Ti2551  1  0.39213374  0.97920092  0.56708528  1.0
  Ti  Ti2552  1  0.50324485  0.10420092  0.56708528  1.0
  Ti  Ti2553  1  0.50324485  0.22920092  0.56708528  1.0
  Ti  Ti2554  1  0.50324485  0.35420092  0.56708528  1.0
  Ti  Ti2555  1  0.50324485  0.47920092  0.56708528  1.0
  Ti  Ti2556  1  0.50324485  0.60420092  0.56708528  1.0
  Ti  Ti2557  1  0.50324485  0.72920092  0.56708528  1.0
  Ti  Ti2558  1  0.50324485  0.85420092  0.56708528  1.0
  Ti  Ti2559  1  0.50324485  0.97920092  0.56708528  1.0
  Ti  Ti2560  1  0.61435596  0.10420092  0.56708528  1.0
  Ti  Ti2561  1  0.61435596  0.22920092  0.56708528  1.0
  Ti  Ti2562  1  0.61435596  0.35420092  0.56708528  1.0
  Ti  Ti2563  1  0.61435596  0.47920092  0.56708528  1.0
  Ti  Ti2564  1  0.61435596  0.60420092  0.56708528  1.0
  Ti  Ti2565  1  0.61435596  0.72920092  0.56708528  1.0
  Ti  Ti2566  1  0.61435596  0.85420092  0.56708528  1.0
  Ti  Ti2567  1  0.61435596  0.97920092  0.56708528  1.0
  Ti  Ti2568  1  0.72546707  0.10420092  0.56708528  1.0
  Ti  Ti2569  1  0.72546707  0.22920092  0.56708528  1.0
  Ti  Ti2570  1  0.72546707  0.35420092  0.56708528  1.0
  Ti  Ti2571  1  0.72546707  0.47920092  0.56708528  1.0
  Ti  Ti2572  1  0.72546707  0.60420092  0.56708528  1.0
  Ti  Ti2573  1  0.72546707  0.72920092  0.56708528  1.0
  Ti  Ti2574  1  0.72546707  0.85420092  0.56708528  1.0
  Ti  Ti2575  1  0.72546707  0.97920092  0.56708528  1.0
  Ti  Ti2576  1  0.83657819  0.10420092  0.56708528  1.0
  Ti  Ti2577  1  0.83657819  0.22920092  0.56708528  1.0
  Ti  Ti2578  1  0.83657819  0.35420092  0.56708528  1.0
  Ti  Ti2579  1  0.83657819  0.47920092  0.56708528  1.0
  Ti  Ti2580  1  0.83657819  0.60420092  0.56708528  1.0
  Ti  Ti2581  1  0.83657819  0.72920092  0.56708528  1.0
  Ti  Ti2582  1  0.83657819  0.85420092  0.56708528  1.0
  Ti  Ti2583  1  0.83657819  0.97920092  0.56708528  1.0
  Ti  Ti2584  1  0.94768930  0.10420092  0.56708528  1.0
  Ti  Ti2585  1  0.94768930  0.22920092  0.56708528  1.0
  Ti  Ti2586  1  0.94768930  0.35420092  0.56708528  1.0
  Ti  Ti2587  1  0.94768930  0.47920092  0.56708528  1.0
  Ti  Ti2588  1  0.94768930  0.60420092  0.56708528  1.0
  Ti  Ti2589  1  0.94768930  0.72920092  0.56708528  1.0
  Ti  Ti2590  1  0.94768930  0.85420092  0.56708528  1.0
  Ti  Ti2591  1  0.94768930  0.97920092  0.56708528  1.0
  Ti  Ti2592  1  0.01683439  0.04170092  0.68444116  1.0
  Ti  Ti2593  1  0.01683439  0.16670092  0.68444116  1.0
  Ti  Ti2594  1  0.01683439  0.29170092  0.68444116  1.0
  Ti  Ti2595  1  0.01683439  0.41670092  0.68444116  1.0
  Ti  Ti2596  1  0.01683439  0.54170092  0.68444116  1.0
  Ti  Ti2597  1  0.01683439  0.66670092  0.68444116  1.0
  Ti  Ti2598  1  0.01683439  0.79170092  0.68444116  1.0
  Ti  Ti2599  1  0.01683439  0.91670092  0.68444116  1.0
  Ti  Ti2600  1  0.12794550  0.04170092  0.68444116  1.0
  Ti  Ti2601  1  0.12794550  0.16670092  0.68444116  1.0
  Ti  Ti2602  1  0.12794550  0.29170092  0.68444116  1.0
  Ti  Ti2603  1  0.12794550  0.41670092  0.68444116  1.0
  Ti  Ti2604  1  0.12794550  0.54170092  0.68444116  1.0
  Ti  Ti2605  1  0.12794550  0.66670092  0.68444116  1.0
  Ti  Ti2606  1  0.12794550  0.79170092  0.68444116  1.0
  Ti  Ti2607  1  0.12794550  0.91670092  0.68444116  1.0
  Ti  Ti2608  1  0.23905661  0.04170092  0.68444116  1.0
  Ti  Ti2609  1  0.23905661  0.16670092  0.68444116  1.0
  Ti  Ti2610  1  0.23905661  0.29170092  0.68444116  1.0
  Ti  Ti2611  1  0.23905661  0.41670092  0.68444116  1.0
  Ti  Ti2612  1  0.23905661  0.54170092  0.68444116  1.0
  Ti  Ti2613  1  0.23905661  0.66670092  0.68444116  1.0
  Ti  Ti2614  1  0.23905661  0.79170092  0.68444116  1.0
  Ti  Ti2615  1  0.23905661  0.91670092  0.68444116  1.0
  Ti  Ti2616  1  0.35016772  0.04170092  0.68444116  1.0
  Ti  Ti2617  1  0.35016772  0.16670092  0.68444116  1.0
  Ti  Ti2618  1  0.35016772  0.29170092  0.68444116  1.0
  Ti  Ti2619  1  0.35016772  0.41670092  0.68444116  1.0
  Ti  Ti2620  1  0.35016772  0.54170092  0.68444116  1.0
  Ti  Ti2621  1  0.35016772  0.66670092  0.68444116  1.0
  Ti  Ti2622  1  0.35016772  0.79170092  0.68444116  1.0
  Ti  Ti2623  1  0.35016772  0.91670092  0.68444116  1.0
  Ti  Ti2624  1  0.46127883  0.04170092  0.68444116  1.0
  Ti  Ti2625  1  0.46127883  0.16670092  0.68444116  1.0
  Ti  Ti2626  1  0.46127883  0.29170092  0.68444116  1.0
  Ti  Ti2627  1  0.46127883  0.41670092  0.68444116  1.0
  Ti  Ti2628  1  0.46127883  0.54170092  0.68444116  1.0
  Ti  Ti2629  1  0.46127883  0.66670092  0.68444116  1.0
  Ti  Ti2630  1  0.46127883  0.79170092  0.68444116  1.0
  Ti  Ti2631  1  0.46127883  0.91670092  0.68444116  1.0
  Ti  Ti2632  1  0.57238994  0.04170092  0.68444116  1.0
  Ti  Ti2633  1  0.57238994  0.16670092  0.68444116  1.0
  Ti  Ti2634  1  0.57238994  0.29170092  0.68444116  1.0
  Ti  Ti2635  1  0.57238994  0.41670092  0.68444116  1.0
  Ti  Ti2636  1  0.57238994  0.54170092  0.68444116  1.0
  Ti  Ti2637  1  0.57238994  0.66670092  0.68444116  1.0
  Ti  Ti2638  1  0.57238994  0.79170092  0.68444116  1.0
  Ti  Ti2639  1  0.57238994  0.91670092  0.68444116  1.0
  Ti  Ti2640  1  0.68350106  0.04170092  0.68444116  1.0
  Ti  Ti2641  1  0.68350106  0.16670092  0.68444116  1.0
  Ti  Ti2642  1  0.68350106  0.29170092  0.68444116  1.0
  Ti  Ti2643  1  0.68350106  0.41670092  0.68444116  1.0
  Ti  Ti2644  1  0.68350106  0.54170092  0.68444116  1.0
  Ti  Ti2645  1  0.68350106  0.66670092  0.68444116  1.0
  Ti  Ti2646  1  0.68350106  0.79170092  0.68444116  1.0
  Ti  Ti2647  1  0.68350106  0.91670092  0.68444116  1.0
  Ti  Ti2648  1  0.79461217  0.04170092  0.68444116  1.0
  Ti  Ti2649  1  0.79461217  0.16670092  0.68444116  1.0
  Ti  Ti2650  1  0.79461217  0.29170092  0.68444116  1.0
  Ti  Ti2651  1  0.79461217  0.41670092  0.68444116  1.0
  Ti  Ti2652  1  0.79461217  0.54170092  0.68444116  1.0
  Ti  Ti2653  1  0.79461217  0.66670092  0.68444116  1.0
  Ti  Ti2654  1  0.79461217  0.79170092  0.68444116  1.0
  Ti  Ti2655  1  0.79461217  0.91670092  0.68444116  1.0
  Ti  Ti2656  1  0.90572328  0.04170092  0.68444116  1.0
  Ti  Ti2657  1  0.90572328  0.16670092  0.68444116  1.0
  Ti  Ti2658  1  0.90572328  0.29170092  0.68444116  1.0
  Ti  Ti2659  1  0.90572328  0.41670092  0.68444116  1.0
  Ti  Ti2660  1  0.90572328  0.54170092  0.68444116  1.0
  Ti  Ti2661  1  0.90572328  0.66670092  0.68444116  1.0
  Ti  Ti2662  1  0.90572328  0.79170092  0.68444116  1.0
  Ti  Ti2663  1  0.90572328  0.91670092  0.68444116  1.0
  Ti  Ti2664  1  0.04328942  0.04170092  0.73206021  1.0
  Ti  Ti2665  1  0.04328942  0.16670092  0.73206021  1.0
  Ti  Ti2666  1  0.04328942  0.29170092  0.73206021  1.0
  Ti  Ti2667  1  0.04328942  0.41670092  0.73206021  1.0
  Ti  Ti2668  1  0.04328942  0.54170092  0.73206021  1.0
  Ti  Ti2669  1  0.04328942  0.66670092  0.73206021  1.0
  Ti  Ti2670  1  0.04328942  0.79170092  0.73206021  1.0
  Ti  Ti2671  1  0.04328942  0.91670092  0.73206021  1.0
  Ti  Ti2672  1  0.15440053  0.04170092  0.73206021  1.0
  Ti  Ti2673  1  0.15440053  0.16670092  0.73206021  1.0
  Ti  Ti2674  1  0.15440053  0.29170092  0.73206021  1.0
  Ti  Ti2675  1  0.15440053  0.41670092  0.73206021  1.0
  Ti  Ti2676  1  0.15440053  0.54170092  0.73206021  1.0
  Ti  Ti2677  1  0.15440053  0.66670092  0.73206021  1.0
  Ti  Ti2678  1  0.15440053  0.79170092  0.73206021  1.0
  Ti  Ti2679  1  0.15440053  0.91670092  0.73206021  1.0
  Ti  Ti2680  1  0.26551164  0.04170092  0.73206021  1.0
  Ti  Ti2681  1  0.26551164  0.16670092  0.73206021  1.0
  Ti  Ti2682  1  0.26551164  0.29170092  0.73206021  1.0
  Ti  Ti2683  1  0.26551164  0.41670092  0.73206021  1.0
  Ti  Ti2684  1  0.26551164  0.54170092  0.73206021  1.0
  Ti  Ti2685  1  0.26551164  0.66670092  0.73206021  1.0
  Ti  Ti2686  1  0.26551164  0.79170092  0.73206021  1.0
  Ti  Ti2687  1  0.26551164  0.91670092  0.73206021  1.0
  Ti  Ti2688  1  0.37662275  0.04170092  0.73206021  1.0
  Ti  Ti2689  1  0.37662275  0.16670092  0.73206021  1.0
  Ti  Ti2690  1  0.37662275  0.29170092  0.73206021  1.0
  Ti  Ti2691  1  0.37662275  0.41670092  0.73206021  1.0
  Ti  Ti2692  1  0.37662275  0.54170092  0.73206021  1.0
  Ti  Ti2693  1  0.37662275  0.66670092  0.73206021  1.0
  Ti  Ti2694  1  0.37662275  0.79170092  0.73206021  1.0
  Ti  Ti2695  1  0.37662275  0.91670092  0.73206021  1.0
  Ti  Ti2696  1  0.48773386  0.04170092  0.73206021  1.0
  Ti  Ti2697  1  0.48773386  0.16670092  0.73206021  1.0
  Ti  Ti2698  1  0.48773386  0.29170092  0.73206021  1.0
  Ti  Ti2699  1  0.48773386  0.41670092  0.73206021  1.0
  Ti  Ti2700  1  0.48773386  0.54170092  0.73206021  1.0
  Ti  Ti2701  1  0.48773386  0.66670092  0.73206021  1.0
  Ti  Ti2702  1  0.48773386  0.79170092  0.73206021  1.0
  Ti  Ti2703  1  0.48773386  0.91670092  0.73206021  1.0
  Ti  Ti2704  1  0.59884497  0.04170092  0.73206021  1.0
  Ti  Ti2705  1  0.59884497  0.16670092  0.73206021  1.0
  Ti  Ti2706  1  0.59884497  0.29170092  0.73206021  1.0
  Ti  Ti2707  1  0.59884497  0.41670092  0.73206021  1.0
  Ti  Ti2708  1  0.59884497  0.54170092  0.73206021  1.0
  Ti  Ti2709  1  0.59884497  0.66670092  0.73206021  1.0
  Ti  Ti2710  1  0.59884497  0.79170092  0.73206021  1.0
  Ti  Ti2711  1  0.59884497  0.91670092  0.73206021  1.0
  Ti  Ti2712  1  0.70995608  0.04170092  0.73206021  1.0
  Ti  Ti2713  1  0.70995608  0.16670092  0.73206021  1.0
  Ti  Ti2714  1  0.70995608  0.29170092  0.73206021  1.0
  Ti  Ti2715  1  0.70995608  0.41670092  0.73206021  1.0
  Ti  Ti2716  1  0.70995608  0.54170092  0.73206021  1.0
  Ti  Ti2717  1  0.70995608  0.66670092  0.73206021  1.0
  Ti  Ti2718  1  0.70995608  0.79170092  0.73206021  1.0
  Ti  Ti2719  1  0.70995608  0.91670092  0.73206021  1.0
  Ti  Ti2720  1  0.82106719  0.04170092  0.73206021  1.0
  Ti  Ti2721  1  0.82106719  0.16670092  0.73206021  1.0
  Ti  Ti2722  1  0.82106719  0.29170092  0.73206021  1.0
  Ti  Ti2723  1  0.82106719  0.41670092  0.73206021  1.0
  Ti  Ti2724  1  0.82106719  0.54170092  0.73206021  1.0
  Ti  Ti2725  1  0.82106719  0.66670092  0.73206021  1.0
  Ti  Ti2726  1  0.82106719  0.79170092  0.73206021  1.0
  Ti  Ti2727  1  0.82106719  0.91670092  0.73206021  1.0
  Ti  Ti2728  1  0.93217830  0.04170092  0.73206021  1.0
  Ti  Ti2729  1  0.93217830  0.16670092  0.73206021  1.0
  Ti  Ti2730  1  0.93217830  0.29170092  0.73206021  1.0
  Ti  Ti2731  1  0.93217830  0.41670092  0.73206021  1.0
  Ti  Ti2732  1  0.93217830  0.54170092  0.73206021  1.0
  Ti  Ti2733  1  0.93217830  0.66670092  0.73206021  1.0
  Ti  Ti2734  1  0.93217830  0.79170092  0.73206021  1.0
  Ti  Ti2735  1  0.93217830  0.91670092  0.73206021  1.0
  Ti  Ti2736  1  0.06938242  0.08329908  0.68613290  1.0
  Ti  Ti2737  1  0.06938242  0.20829908  0.68613290  1.0
  Ti  Ti2738  1  0.06938242  0.33329908  0.68613290  1.0
  Ti  Ti2739  1  0.06938242  0.45829908  0.68613290  1.0
  Ti  Ti2740  1  0.06938242  0.58329908  0.68613290  1.0
  Ti  Ti2741  1  0.06938242  0.70829908  0.68613290  1.0
  Ti  Ti2742  1  0.06938242  0.83329908  0.68613290  1.0
  Ti  Ti2743  1  0.06938242  0.95829908  0.68613290  1.0
  Ti  Ti2744  1  0.18049353  0.08329908  0.68613290  1.0
  Ti  Ti2745  1  0.18049353  0.20829908  0.68613290  1.0
  Ti  Ti2746  1  0.18049353  0.33329908  0.68613290  1.0
  Ti  Ti2747  1  0.18049353  0.45829908  0.68613290  1.0
  Ti  Ti2748  1  0.18049353  0.58329908  0.68613290  1.0
  Ti  Ti2749  1  0.18049353  0.70829908  0.68613290  1.0
  Ti  Ti2750  1  0.18049353  0.83329908  0.68613290  1.0
  Ti  Ti2751  1  0.18049353  0.95829908  0.68613290  1.0
  Ti  Ti2752  1  0.29160464  0.08329908  0.68613290  1.0
  Ti  Ti2753  1  0.29160464  0.20829908  0.68613290  1.0
  Ti  Ti2754  1  0.29160464  0.33329908  0.68613290  1.0
  Ti  Ti2755  1  0.29160464  0.45829908  0.68613290  1.0
  Ti  Ti2756  1  0.29160464  0.58329908  0.68613290  1.0
  Ti  Ti2757  1  0.29160464  0.70829908  0.68613290  1.0
  Ti  Ti2758  1  0.29160464  0.83329908  0.68613290  1.0
  Ti  Ti2759  1  0.29160464  0.95829908  0.68613290  1.0
  Ti  Ti2760  1  0.40271575  0.08329908  0.68613290  1.0
  Ti  Ti2761  1  0.40271575  0.20829908  0.68613290  1.0
  Ti  Ti2762  1  0.40271575  0.33329908  0.68613290  1.0
  Ti  Ti2763  1  0.40271575  0.45829908  0.68613290  1.0
  Ti  Ti2764  1  0.40271575  0.58329908  0.68613290  1.0
  Ti  Ti2765  1  0.40271575  0.70829908  0.68613290  1.0
  Ti  Ti2766  1  0.40271575  0.83329908  0.68613290  1.0
  Ti  Ti2767  1  0.40271575  0.95829908  0.68613290  1.0
  Ti  Ti2768  1  0.51382686  0.08329908  0.68613290  1.0
  Ti  Ti2769  1  0.51382686  0.20829908  0.68613290  1.0
  Ti  Ti2770  1  0.51382686  0.33329908  0.68613290  1.0
  Ti  Ti2771  1  0.51382686  0.45829908  0.68613290  1.0
  Ti  Ti2772  1  0.51382686  0.58329908  0.68613290  1.0
  Ti  Ti2773  1  0.51382686  0.70829908  0.68613290  1.0
  Ti  Ti2774  1  0.51382686  0.83329908  0.68613290  1.0
  Ti  Ti2775  1  0.51382686  0.95829908  0.68613290  1.0
  Ti  Ti2776  1  0.62493797  0.08329908  0.68613290  1.0
  Ti  Ti2777  1  0.62493797  0.20829908  0.68613290  1.0
  Ti  Ti2778  1  0.62493797  0.33329908  0.68613290  1.0
  Ti  Ti2779  1  0.62493797  0.45829908  0.68613290  1.0
  Ti  Ti2780  1  0.62493797  0.58329908  0.68613290  1.0
  Ti  Ti2781  1  0.62493797  0.70829908  0.68613290  1.0
  Ti  Ti2782  1  0.62493797  0.83329908  0.68613290  1.0
  Ti  Ti2783  1  0.62493797  0.95829908  0.68613290  1.0
  Ti  Ti2784  1  0.73604909  0.08329908  0.68613290  1.0
  Ti  Ti2785  1  0.73604909  0.20829908  0.68613290  1.0
  Ti  Ti2786  1  0.73604909  0.33329908  0.68613290  1.0
  Ti  Ti2787  1  0.73604909  0.45829908  0.68613290  1.0
  Ti  Ti2788  1  0.73604909  0.58329908  0.68613290  1.0
  Ti  Ti2789  1  0.73604909  0.70829908  0.68613290  1.0
  Ti  Ti2790  1  0.73604909  0.83329908  0.68613290  1.0
  Ti  Ti2791  1  0.73604909  0.95829908  0.68613290  1.0
  Ti  Ti2792  1  0.84716020  0.08329908  0.68613290  1.0
  Ti  Ti2793  1  0.84716020  0.20829908  0.68613290  1.0
  Ti  Ti2794  1  0.84716020  0.33329908  0.68613290  1.0
  Ti  Ti2795  1  0.84716020  0.45829908  0.68613290  1.0
  Ti  Ti2796  1  0.84716020  0.58329908  0.68613290  1.0
  Ti  Ti2797  1  0.84716020  0.70829908  0.68613290  1.0
  Ti  Ti2798  1  0.84716020  0.83329908  0.68613290  1.0
  Ti  Ti2799  1  0.84716020  0.95829908  0.68613290  1.0
  Ti  Ti2800  1  0.95827131  0.08329908  0.68613290  1.0
  Ti  Ti2801  1  0.95827131  0.20829908  0.68613290  1.0
  Ti  Ti2802  1  0.95827131  0.33329908  0.68613290  1.0
  Ti  Ti2803  1  0.95827131  0.45829908  0.68613290  1.0
  Ti  Ti2804  1  0.95827131  0.58329908  0.68613290  1.0
  Ti  Ti2805  1  0.95827131  0.70829908  0.68613290  1.0
  Ti  Ti2806  1  0.95827131  0.83329908  0.68613290  1.0
  Ti  Ti2807  1  0.95827131  0.95829908  0.68613290  1.0
  Ti  Ti2808  1  0.09583745  0.08329908  0.73375194  1.0
  Ti  Ti2809  1  0.09583745  0.20829908  0.73375194  1.0
  Ti  Ti2810  1  0.09583745  0.33329908  0.73375194  1.0
  Ti  Ti2811  1  0.09583745  0.45829908  0.73375194  1.0
  Ti  Ti2812  1  0.09583745  0.58329908  0.73375194  1.0
  Ti  Ti2813  1  0.09583745  0.70829908  0.73375194  1.0
  Ti  Ti2814  1  0.09583745  0.83329908  0.73375194  1.0
  Ti  Ti2815  1  0.09583745  0.95829908  0.73375194  1.0
  Ti  Ti2816  1  0.20694856  0.08329908  0.73375194  1.0
  Ti  Ti2817  1  0.20694856  0.20829908  0.73375194  1.0
  Ti  Ti2818  1  0.20694856  0.33329908  0.73375194  1.0
  Ti  Ti2819  1  0.20694856  0.45829908  0.73375194  1.0
  Ti  Ti2820  1  0.20694856  0.58329908  0.73375194  1.0
  Ti  Ti2821  1  0.20694856  0.70829908  0.73375194  1.0
  Ti  Ti2822  1  0.20694856  0.83329908  0.73375194  1.0
  Ti  Ti2823  1  0.20694856  0.95829908  0.73375194  1.0
  Ti  Ti2824  1  0.31805967  0.08329908  0.73375194  1.0
  Ti  Ti2825  1  0.31805967  0.20829908  0.73375194  1.0
  Ti  Ti2826  1  0.31805967  0.33329908  0.73375194  1.0
  Ti  Ti2827  1  0.31805967  0.45829908  0.73375194  1.0
  Ti  Ti2828  1  0.31805967  0.58329908  0.73375194  1.0
  Ti  Ti2829  1  0.31805967  0.70829908  0.73375194  1.0
  Ti  Ti2830  1  0.31805967  0.83329908  0.73375194  1.0
  Ti  Ti2831  1  0.31805967  0.95829908  0.73375194  1.0
  Ti  Ti2832  1  0.42917078  0.08329908  0.73375194  1.0
  Ti  Ti2833  1  0.42917078  0.20829908  0.73375194  1.0
  Ti  Ti2834  1  0.42917078  0.33329908  0.73375194  1.0
  Ti  Ti2835  1  0.42917078  0.45829908  0.73375194  1.0
  Ti  Ti2836  1  0.42917078  0.58329908  0.73375194  1.0
  Ti  Ti2837  1  0.42917078  0.70829908  0.73375194  1.0
  Ti  Ti2838  1  0.42917078  0.83329908  0.73375194  1.0
  Ti  Ti2839  1  0.42917078  0.95829908  0.73375194  1.0
  Ti  Ti2840  1  0.54028189  0.08329908  0.73375194  1.0
  Ti  Ti2841  1  0.54028189  0.20829908  0.73375194  1.0
  Ti  Ti2842  1  0.54028189  0.33329908  0.73375194  1.0
  Ti  Ti2843  1  0.54028189  0.45829908  0.73375194  1.0
  Ti  Ti2844  1  0.54028189  0.58329908  0.73375194  1.0
  Ti  Ti2845  1  0.54028189  0.70829908  0.73375194  1.0
  Ti  Ti2846  1  0.54028189  0.83329908  0.73375194  1.0
  Ti  Ti2847  1  0.54028189  0.95829908  0.73375194  1.0
  Ti  Ti2848  1  0.65139300  0.08329908  0.73375194  1.0
  Ti  Ti2849  1  0.65139300  0.20829908  0.73375194  1.0
  Ti  Ti2850  1  0.65139300  0.33329908  0.73375194  1.0
  Ti  Ti2851  1  0.65139300  0.45829908  0.73375194  1.0
  Ti  Ti2852  1  0.65139300  0.58329908  0.73375194  1.0
  Ti  Ti2853  1  0.65139300  0.70829908  0.73375194  1.0
  Ti  Ti2854  1  0.65139300  0.83329908  0.73375194  1.0
  Ti  Ti2855  1  0.65139300  0.95829908  0.73375194  1.0
  Ti  Ti2856  1  0.76250411  0.08329908  0.73375194  1.0
  Ti  Ti2857  1  0.76250411  0.20829908  0.73375194  1.0
  Ti  Ti2858  1  0.76250411  0.33329908  0.73375194  1.0
  Ti  Ti2859  1  0.76250411  0.45829908  0.73375194  1.0
  Ti  Ti2860  1  0.76250411  0.58329908  0.73375194  1.0
  Ti  Ti2861  1  0.76250411  0.70829908  0.73375194  1.0
  Ti  Ti2862  1  0.76250411  0.83329908  0.73375194  1.0
  Ti  Ti2863  1  0.76250411  0.95829908  0.73375194  1.0
  Ti  Ti2864  1  0.87361522  0.08329908  0.73375194  1.0
  Ti  Ti2865  1  0.87361522  0.20829908  0.73375194  1.0
  Ti  Ti2866  1  0.87361522  0.33329908  0.73375194  1.0
  Ti  Ti2867  1  0.87361522  0.45829908  0.73375194  1.0
  Ti  Ti2868  1  0.87361522  0.58329908  0.73375194  1.0
  Ti  Ti2869  1  0.87361522  0.70829908  0.73375194  1.0
  Ti  Ti2870  1  0.87361522  0.83329908  0.73375194  1.0
  Ti  Ti2871  1  0.87361522  0.95829908  0.73375194  1.0
  Ti  Ti2872  1  0.98472633  0.08329908  0.73375194  1.0
  Ti  Ti2873  1  0.98472633  0.20829908  0.73375194  1.0
  Ti  Ti2874  1  0.98472633  0.33329908  0.73375194  1.0
  Ti  Ti2875  1  0.98472633  0.45829908  0.73375194  1.0
  Ti  Ti2876  1  0.98472633  0.58329908  0.73375194  1.0
  Ti  Ti2877  1  0.98472633  0.70829908  0.73375194  1.0
  Ti  Ti2878  1  0.98472633  0.83329908  0.73375194  1.0
  Ti  Ti2879  1  0.98472633  0.95829908  0.73375194  1.0
  Ti  Ti2880  1  0.08561746  0.02079908  0.70825069  1.0
  Ti  Ti2881  1  0.08561746  0.14579908  0.70825069  1.0
  Ti  Ti2882  1  0.08561746  0.27079908  0.70825069  1.0
  Ti  Ti2883  1  0.08561746  0.39579908  0.70825069  1.0
  Ti  Ti2884  1  0.08561746  0.52079908  0.70825069  1.0
  Ti  Ti2885  1  0.08561746  0.64579908  0.70825069  1.0
  Ti  Ti2886  1  0.08561746  0.77079908  0.70825069  1.0
  Ti  Ti2887  1  0.08561746  0.89579908  0.70825069  1.0
  Ti  Ti2888  1  0.19672857  0.02079908  0.70825069  1.0
  Ti  Ti2889  1  0.19672857  0.14579908  0.70825069  1.0
  Ti  Ti2890  1  0.19672857  0.27079908  0.70825069  1.0
  Ti  Ti2891  1  0.19672857  0.39579908  0.70825069  1.0
  Ti  Ti2892  1  0.19672857  0.52079908  0.70825069  1.0
  Ti  Ti2893  1  0.19672857  0.64579908  0.70825069  1.0
  Ti  Ti2894  1  0.19672857  0.77079908  0.70825069  1.0
  Ti  Ti2895  1  0.19672857  0.89579908  0.70825069  1.0
  Ti  Ti2896  1  0.30783968  0.02079908  0.70825069  1.0
  Ti  Ti2897  1  0.30783968  0.14579908  0.70825069  1.0
  Ti  Ti2898  1  0.30783968  0.27079908  0.70825069  1.0
  Ti  Ti2899  1  0.30783968  0.39579908  0.70825069  1.0
  Ti  Ti2900  1  0.30783968  0.52079908  0.70825069  1.0
  Ti  Ti2901  1  0.30783968  0.64579908  0.70825069  1.0
  Ti  Ti2902  1  0.30783968  0.77079908  0.70825069  1.0
  Ti  Ti2903  1  0.30783968  0.89579908  0.70825069  1.0
  Ti  Ti2904  1  0.41895079  0.02079908  0.70825069  1.0
  Ti  Ti2905  1  0.41895079  0.14579908  0.70825069  1.0
  Ti  Ti2906  1  0.41895079  0.27079908  0.70825069  1.0
  Ti  Ti2907  1  0.41895079  0.39579908  0.70825069  1.0
  Ti  Ti2908  1  0.41895079  0.52079908  0.70825069  1.0
  Ti  Ti2909  1  0.41895079  0.64579908  0.70825069  1.0
  Ti  Ti2910  1  0.41895079  0.77079908  0.70825069  1.0
  Ti  Ti2911  1  0.41895079  0.89579908  0.70825069  1.0
  Ti  Ti2912  1  0.53006190  0.02079908  0.70825069  1.0
  Ti  Ti2913  1  0.53006190  0.14579908  0.70825069  1.0
  Ti  Ti2914  1  0.53006190  0.27079908  0.70825069  1.0
  Ti  Ti2915  1  0.53006190  0.39579908  0.70825069  1.0
  Ti  Ti2916  1  0.53006190  0.52079908  0.70825069  1.0
  Ti  Ti2917  1  0.53006190  0.64579908  0.70825069  1.0
  Ti  Ti2918  1  0.53006190  0.77079908  0.70825069  1.0
  Ti  Ti2919  1  0.53006190  0.89579908  0.70825069  1.0
  Ti  Ti2920  1  0.64117301  0.02079908  0.70825069  1.0
  Ti  Ti2921  1  0.64117301  0.14579908  0.70825069  1.0
  Ti  Ti2922  1  0.64117301  0.27079908  0.70825069  1.0
  Ti  Ti2923  1  0.64117301  0.39579908  0.70825069  1.0
  Ti  Ti2924  1  0.64117301  0.52079908  0.70825069  1.0
  Ti  Ti2925  1  0.64117301  0.64579908  0.70825069  1.0
  Ti  Ti2926  1  0.64117301  0.77079908  0.70825069  1.0
  Ti  Ti2927  1  0.64117301  0.89579908  0.70825069  1.0
  Ti  Ti2928  1  0.75228412  0.02079908  0.70825069  1.0
  Ti  Ti2929  1  0.75228412  0.14579908  0.70825069  1.0
  Ti  Ti2930  1  0.75228412  0.27079908  0.70825069  1.0
  Ti  Ti2931  1  0.75228412  0.39579908  0.70825069  1.0
  Ti  Ti2932  1  0.75228412  0.52079908  0.70825069  1.0
  Ti  Ti2933  1  0.75228412  0.64579908  0.70825069  1.0
  Ti  Ti2934  1  0.75228412  0.77079908  0.70825069  1.0
  Ti  Ti2935  1  0.75228412  0.89579908  0.70825069  1.0
  Ti  Ti2936  1  0.86339524  0.02079908  0.70825069  1.0
  Ti  Ti2937  1  0.86339524  0.14579908  0.70825069  1.0
  Ti  Ti2938  1  0.86339524  0.27079908  0.70825069  1.0
  Ti  Ti2939  1  0.86339524  0.39579908  0.70825069  1.0
  Ti  Ti2940  1  0.86339524  0.52079908  0.70825069  1.0
  Ti  Ti2941  1  0.86339524  0.64579908  0.70825069  1.0
  Ti  Ti2942  1  0.86339524  0.77079908  0.70825069  1.0
  Ti  Ti2943  1  0.86339524  0.89579908  0.70825069  1.0
  Ti  Ti2944  1  0.97450635  0.02079908  0.70825069  1.0
  Ti  Ti2945  1  0.97450635  0.14579908  0.70825069  1.0
  Ti  Ti2946  1  0.97450635  0.27079908  0.70825069  1.0
  Ti  Ti2947  1  0.97450635  0.39579908  0.70825069  1.0
  Ti  Ti2948  1  0.97450635  0.52079908  0.70825069  1.0
  Ti  Ti2949  1  0.97450635  0.64579908  0.70825069  1.0
  Ti  Ti2950  1  0.97450635  0.77079908  0.70825069  1.0
  Ti  Ti2951  1  0.97450635  0.89579908  0.70825069  1.0
  Ti  Ti2952  1  0.05916243  0.02079908  0.66063164  1.0
  Ti  Ti2953  1  0.05916243  0.14579908  0.66063164  1.0
  Ti  Ti2954  1  0.05916243  0.27079908  0.66063164  1.0
  Ti  Ti2955  1  0.05916243  0.39579908  0.66063164  1.0
  Ti  Ti2956  1  0.05916243  0.52079908  0.66063164  1.0
  Ti  Ti2957  1  0.05916243  0.64579908  0.66063164  1.0
  Ti  Ti2958  1  0.05916243  0.77079908  0.66063164  1.0
  Ti  Ti2959  1  0.05916243  0.89579908  0.66063164  1.0
  Ti  Ti2960  1  0.17027354  0.02079908  0.66063164  1.0
  Ti  Ti2961  1  0.17027354  0.14579908  0.66063164  1.0
  Ti  Ti2962  1  0.17027354  0.27079908  0.66063164  1.0
  Ti  Ti2963  1  0.17027354  0.39579908  0.66063164  1.0
  Ti  Ti2964  1  0.17027354  0.52079908  0.66063164  1.0
  Ti  Ti2965  1  0.17027354  0.64579908  0.66063164  1.0
  Ti  Ti2966  1  0.17027354  0.77079908  0.66063164  1.0
  Ti  Ti2967  1  0.17027354  0.89579908  0.66063164  1.0
  Ti  Ti2968  1  0.28138465  0.02079908  0.66063164  1.0
  Ti  Ti2969  1  0.28138465  0.14579908  0.66063164  1.0
  Ti  Ti2970  1  0.28138465  0.27079908  0.66063164  1.0
  Ti  Ti2971  1  0.28138465  0.39579908  0.66063164  1.0
  Ti  Ti2972  1  0.28138465  0.52079908  0.66063164  1.0
  Ti  Ti2973  1  0.28138465  0.64579908  0.66063164  1.0
  Ti  Ti2974  1  0.28138465  0.77079908  0.66063164  1.0
  Ti  Ti2975  1  0.28138465  0.89579908  0.66063164  1.0
  Ti  Ti2976  1  0.39249576  0.02079908  0.66063164  1.0
  Ti  Ti2977  1  0.39249576  0.14579908  0.66063164  1.0
  Ti  Ti2978  1  0.39249576  0.27079908  0.66063164  1.0
  Ti  Ti2979  1  0.39249576  0.39579908  0.66063164  1.0
  Ti  Ti2980  1  0.39249576  0.52079908  0.66063164  1.0
  Ti  Ti2981  1  0.39249576  0.64579908  0.66063164  1.0
  Ti  Ti2982  1  0.39249576  0.77079908  0.66063164  1.0
  Ti  Ti2983  1  0.39249576  0.89579908  0.66063164  1.0
  Ti  Ti2984  1  0.50360688  0.02079908  0.66063164  1.0
  Ti  Ti2985  1  0.50360688  0.14579908  0.66063164  1.0
  Ti  Ti2986  1  0.50360688  0.27079908  0.66063164  1.0
  Ti  Ti2987  1  0.50360688  0.39579908  0.66063164  1.0
  Ti  Ti2988  1  0.50360688  0.52079908  0.66063164  1.0
  Ti  Ti2989  1  0.50360688  0.64579908  0.66063164  1.0
  Ti  Ti2990  1  0.50360688  0.77079908  0.66063164  1.0
  Ti  Ti2991  1  0.50360688  0.89579908  0.66063164  1.0
  Ti  Ti2992  1  0.61471799  0.02079908  0.66063164  1.0
  Ti  Ti2993  1  0.61471799  0.14579908  0.66063164  1.0
  Ti  Ti2994  1  0.61471799  0.27079908  0.66063164  1.0
  Ti  Ti2995  1  0.61471799  0.39579908  0.66063164  1.0
  Ti  Ti2996  1  0.61471799  0.52079908  0.66063164  1.0
  Ti  Ti2997  1  0.61471799  0.64579908  0.66063164  1.0
  Ti  Ti2998  1  0.61471799  0.77079908  0.66063164  1.0
  Ti  Ti2999  1  0.61471799  0.89579908  0.66063164  1.0
  Ti  Ti3000  1  0.72582910  0.02079908  0.66063164  1.0
  Ti  Ti3001  1  0.72582910  0.14579908  0.66063164  1.0
  Ti  Ti3002  1  0.72582910  0.27079908  0.66063164  1.0
  Ti  Ti3003  1  0.72582910  0.39579908  0.66063164  1.0
  Ti  Ti3004  1  0.72582910  0.52079908  0.66063164  1.0
  Ti  Ti3005  1  0.72582910  0.64579908  0.66063164  1.0
  Ti  Ti3006  1  0.72582910  0.77079908  0.66063164  1.0
  Ti  Ti3007  1  0.72582910  0.89579908  0.66063164  1.0
  Ti  Ti3008  1  0.83694021  0.02079908  0.66063164  1.0
  Ti  Ti3009  1  0.83694021  0.14579908  0.66063164  1.0
  Ti  Ti3010  1  0.83694021  0.27079908  0.66063164  1.0
  Ti  Ti3011  1  0.83694021  0.39579908  0.66063164  1.0
  Ti  Ti3012  1  0.83694021  0.52079908  0.66063164  1.0
  Ti  Ti3013  1  0.83694021  0.64579908  0.66063164  1.0
  Ti  Ti3014  1  0.83694021  0.77079908  0.66063164  1.0
  Ti  Ti3015  1  0.83694021  0.89579908  0.66063164  1.0
  Ti  Ti3016  1  0.94805132  0.02079908  0.66063164  1.0
  Ti  Ti3017  1  0.94805132  0.14579908  0.66063164  1.0
  Ti  Ti3018  1  0.94805132  0.27079908  0.66063164  1.0
  Ti  Ti3019  1  0.94805132  0.39579908  0.66063164  1.0
  Ti  Ti3020  1  0.94805132  0.52079908  0.66063164  1.0
  Ti  Ti3021  1  0.94805132  0.64579908  0.66063164  1.0
  Ti  Ti3022  1  0.94805132  0.77079908  0.66063164  1.0
  Ti  Ti3023  1  0.94805132  0.89579908  0.66063164  1.0
  Ti  Ti3024  1  0.00096137  0.02079908  0.75586973  1.0
  Ti  Ti3025  1  0.00096137  0.14579908  0.75586973  1.0
  Ti  Ti3026  1  0.00096137  0.27079908  0.75586973  1.0
  Ti  Ti3027  1  0.00096137  0.39579908  0.75586973  1.0
  Ti  Ti3028  1  0.00096137  0.52079908  0.75586973  1.0
  Ti  Ti3029  1  0.00096137  0.64579908  0.75586973  1.0
  Ti  Ti3030  1  0.00096137  0.77079908  0.75586973  1.0
  Ti  Ti3031  1  0.00096137  0.89579908  0.75586973  1.0
  Ti  Ti3032  1  0.11207248  0.02079908  0.75586973  1.0
  Ti  Ti3033  1  0.11207248  0.14579908  0.75586973  1.0
  Ti  Ti3034  1  0.11207248  0.27079908  0.75586973  1.0
  Ti  Ti3035  1  0.11207248  0.39579908  0.75586973  1.0
  Ti  Ti3036  1  0.11207248  0.52079908  0.75586973  1.0
  Ti  Ti3037  1  0.11207248  0.64579908  0.75586973  1.0
  Ti  Ti3038  1  0.11207248  0.77079908  0.75586973  1.0
  Ti  Ti3039  1  0.11207248  0.89579908  0.75586973  1.0
  Ti  Ti3040  1  0.22318360  0.02079908  0.75586973  1.0
  Ti  Ti3041  1  0.22318360  0.14579908  0.75586973  1.0
  Ti  Ti3042  1  0.22318360  0.27079908  0.75586973  1.0
  Ti  Ti3043  1  0.22318360  0.39579908  0.75586973  1.0
  Ti  Ti3044  1  0.22318360  0.52079908  0.75586973  1.0
  Ti  Ti3045  1  0.22318360  0.64579908  0.75586973  1.0
  Ti  Ti3046  1  0.22318360  0.77079908  0.75586973  1.0
  Ti  Ti3047  1  0.22318360  0.89579908  0.75586973  1.0
  Ti  Ti3048  1  0.33429471  0.02079908  0.75586973  1.0
  Ti  Ti3049  1  0.33429471  0.14579908  0.75586973  1.0
  Ti  Ti3050  1  0.33429471  0.27079908  0.75586973  1.0
  Ti  Ti3051  1  0.33429471  0.39579908  0.75586973  1.0
  Ti  Ti3052  1  0.33429471  0.52079908  0.75586973  1.0
  Ti  Ti3053  1  0.33429471  0.64579908  0.75586973  1.0
  Ti  Ti3054  1  0.33429471  0.77079908  0.75586973  1.0
  Ti  Ti3055  1  0.33429471  0.89579908  0.75586973  1.0
  Ti  Ti3056  1  0.44540582  0.02079908  0.75586973  1.0
  Ti  Ti3057  1  0.44540582  0.14579908  0.75586973  1.0
  Ti  Ti3058  1  0.44540582  0.27079908  0.75586973  1.0
  Ti  Ti3059  1  0.44540582  0.39579908  0.75586973  1.0
  Ti  Ti3060  1  0.44540582  0.52079908  0.75586973  1.0
  Ti  Ti3061  1  0.44540582  0.64579908  0.75586973  1.0
  Ti  Ti3062  1  0.44540582  0.77079908  0.75586973  1.0
  Ti  Ti3063  1  0.44540582  0.89579908  0.75586973  1.0
  Ti  Ti3064  1  0.55651693  0.02079908  0.75586973  1.0
  Ti  Ti3065  1  0.55651693  0.14579908  0.75586973  1.0
  Ti  Ti3066  1  0.55651693  0.27079908  0.75586973  1.0
  Ti  Ti3067  1  0.55651693  0.39579908  0.75586973  1.0
  Ti  Ti3068  1  0.55651693  0.52079908  0.75586973  1.0
  Ti  Ti3069  1  0.55651693  0.64579908  0.75586973  1.0
  Ti  Ti3070  1  0.55651693  0.77079908  0.75586973  1.0
  Ti  Ti3071  1  0.55651693  0.89579908  0.75586973  1.0
  Ti  Ti3072  1  0.66762804  0.02079908  0.75586973  1.0
  Ti  Ti3073  1  0.66762804  0.14579908  0.75586973  1.0
  Ti  Ti3074  1  0.66762804  0.27079908  0.75586973  1.0
  Ti  Ti3075  1  0.66762804  0.39579908  0.75586973  1.0
  Ti  Ti3076  1  0.66762804  0.52079908  0.75586973  1.0
  Ti  Ti3077  1  0.66762804  0.64579908  0.75586973  1.0
  Ti  Ti3078  1  0.66762804  0.77079908  0.75586973  1.0
  Ti  Ti3079  1  0.66762804  0.89579908  0.75586973  1.0
  Ti  Ti3080  1  0.77873915  0.02079908  0.75586973  1.0
  Ti  Ti3081  1  0.77873915  0.14579908  0.75586973  1.0
  Ti  Ti3082  1  0.77873915  0.27079908  0.75586973  1.0
  Ti  Ti3083  1  0.77873915  0.39579908  0.75586973  1.0
  Ti  Ti3084  1  0.77873915  0.52079908  0.75586973  1.0
  Ti  Ti3085  1  0.77873915  0.64579908  0.75586973  1.0
  Ti  Ti3086  1  0.77873915  0.77079908  0.75586973  1.0
  Ti  Ti3087  1  0.77873915  0.89579908  0.75586973  1.0
  Ti  Ti3088  1  0.88985026  0.02079908  0.75586973  1.0
  Ti  Ti3089  1  0.88985026  0.14579908  0.75586973  1.0
  Ti  Ti3090  1  0.88985026  0.27079908  0.75586973  1.0
  Ti  Ti3091  1  0.88985026  0.39579908  0.75586973  1.0
  Ti  Ti3092  1  0.88985026  0.52079908  0.75586973  1.0
  Ti  Ti3093  1  0.88985026  0.64579908  0.75586973  1.0
  Ti  Ti3094  1  0.88985026  0.77079908  0.75586973  1.0
  Ti  Ti3095  1  0.88985026  0.89579908  0.75586973  1.0
  Ti  Ti3096  1  0.00059935  0.10420092  0.66232337  1.0
  Ti  Ti3097  1  0.00059935  0.22920092  0.66232337  1.0
  Ti  Ti3098  1  0.00059935  0.35420092  0.66232337  1.0
  Ti  Ti3099  1  0.00059935  0.47920092  0.66232337  1.0
  Ti  Ti3100  1  0.00059935  0.60420092  0.66232337  1.0
  Ti  Ti3101  1  0.00059935  0.72920092  0.66232337  1.0
  Ti  Ti3102  1  0.00059935  0.85420092  0.66232337  1.0
  Ti  Ti3103  1  0.00059935  0.97920092  0.66232337  1.0
  Ti  Ti3104  1  0.11171046  0.10420092  0.66232337  1.0
  Ti  Ti3105  1  0.11171046  0.22920092  0.66232337  1.0
  Ti  Ti3106  1  0.11171046  0.35420092  0.66232337  1.0
  Ti  Ti3107  1  0.11171046  0.47920092  0.66232337  1.0
  Ti  Ti3108  1  0.11171046  0.60420092  0.66232337  1.0
  Ti  Ti3109  1  0.11171046  0.72920092  0.66232337  1.0
  Ti  Ti3110  1  0.11171046  0.85420092  0.66232337  1.0
  Ti  Ti3111  1  0.11171046  0.97920092  0.66232337  1.0
  Ti  Ti3112  1  0.22282157  0.10420092  0.66232337  1.0
  Ti  Ti3113  1  0.22282157  0.22920092  0.66232337  1.0
  Ti  Ti3114  1  0.22282157  0.35420092  0.66232337  1.0
  Ti  Ti3115  1  0.22282157  0.47920092  0.66232337  1.0
  Ti  Ti3116  1  0.22282157  0.60420092  0.66232337  1.0
  Ti  Ti3117  1  0.22282157  0.72920092  0.66232337  1.0
  Ti  Ti3118  1  0.22282157  0.85420092  0.66232337  1.0
  Ti  Ti3119  1  0.22282157  0.97920092  0.66232337  1.0
  Ti  Ti3120  1  0.33393268  0.10420092  0.66232337  1.0
  Ti  Ti3121  1  0.33393268  0.22920092  0.66232337  1.0
  Ti  Ti3122  1  0.33393268  0.35420092  0.66232337  1.0
  Ti  Ti3123  1  0.33393268  0.47920092  0.66232337  1.0
  Ti  Ti3124  1  0.33393268  0.60420092  0.66232337  1.0
  Ti  Ti3125  1  0.33393268  0.72920092  0.66232337  1.0
  Ti  Ti3126  1  0.33393268  0.85420092  0.66232337  1.0
  Ti  Ti3127  1  0.33393268  0.97920092  0.66232337  1.0
  Ti  Ti3128  1  0.44504379  0.10420092  0.66232337  1.0
  Ti  Ti3129  1  0.44504379  0.22920092  0.66232337  1.0
  Ti  Ti3130  1  0.44504379  0.35420092  0.66232337  1.0
  Ti  Ti3131  1  0.44504379  0.47920092  0.66232337  1.0
  Ti  Ti3132  1  0.44504379  0.60420092  0.66232337  1.0
  Ti  Ti3133  1  0.44504379  0.72920092  0.66232337  1.0
  Ti  Ti3134  1  0.44504379  0.85420092  0.66232337  1.0
  Ti  Ti3135  1  0.44504379  0.97920092  0.66232337  1.0
  Ti  Ti3136  1  0.55615491  0.10420092  0.66232337  1.0
  Ti  Ti3137  1  0.55615491  0.22920092  0.66232337  1.0
  Ti  Ti3138  1  0.55615491  0.35420092  0.66232337  1.0
  Ti  Ti3139  1  0.55615491  0.47920092  0.66232337  1.0
  Ti  Ti3140  1  0.55615491  0.60420092  0.66232337  1.0
  Ti  Ti3141  1  0.55615491  0.72920092  0.66232337  1.0
  Ti  Ti3142  1  0.55615491  0.85420092  0.66232337  1.0
  Ti  Ti3143  1  0.55615491  0.97920092  0.66232337  1.0
  Ti  Ti3144  1  0.66726602  0.10420092  0.66232337  1.0
  Ti  Ti3145  1  0.66726602  0.22920092  0.66232337  1.0
  Ti  Ti3146  1  0.66726602  0.35420092  0.66232337  1.0
  Ti  Ti3147  1  0.66726602  0.47920092  0.66232337  1.0
  Ti  Ti3148  1  0.66726602  0.60420092  0.66232337  1.0
  Ti  Ti3149  1  0.66726602  0.72920092  0.66232337  1.0
  Ti  Ti3150  1  0.66726602  0.85420092  0.66232337  1.0
  Ti  Ti3151  1  0.66726602  0.97920092  0.66232337  1.0
  Ti  Ti3152  1  0.77837713  0.10420092  0.66232337  1.0
  Ti  Ti3153  1  0.77837713  0.22920092  0.66232337  1.0
  Ti  Ti3154  1  0.77837713  0.35420092  0.66232337  1.0
  Ti  Ti3155  1  0.77837713  0.47920092  0.66232337  1.0
  Ti  Ti3156  1  0.77837713  0.60420092  0.66232337  1.0
  Ti  Ti3157  1  0.77837713  0.72920092  0.66232337  1.0
  Ti  Ti3158  1  0.77837713  0.85420092  0.66232337  1.0
  Ti  Ti3159  1  0.77837713  0.97920092  0.66232337  1.0
  Ti  Ti3160  1  0.88948824  0.10420092  0.66232337  1.0
  Ti  Ti3161  1  0.88948824  0.22920092  0.66232337  1.0
  Ti  Ti3162  1  0.88948824  0.35420092  0.66232337  1.0
  Ti  Ti3163  1  0.88948824  0.47920092  0.66232337  1.0
  Ti  Ti3164  1  0.88948824  0.60420092  0.66232337  1.0
  Ti  Ti3165  1  0.88948824  0.72920092  0.66232337  1.0
  Ti  Ti3166  1  0.88948824  0.85420092  0.66232337  1.0
  Ti  Ti3167  1  0.88948824  0.97920092  0.66232337  1.0
  Ti  Ti3168  1  0.05350940  0.10420092  0.75756147  1.0
  Ti  Ti3169  1  0.05350940  0.22920092  0.75756147  1.0
  Ti  Ti3170  1  0.05350940  0.35420092  0.75756147  1.0
  Ti  Ti3171  1  0.05350940  0.47920092  0.75756147  1.0
  Ti  Ti3172  1  0.05350940  0.60420092  0.75756147  1.0
  Ti  Ti3173  1  0.05350940  0.72920092  0.75756147  1.0
  Ti  Ti3174  1  0.05350940  0.85420092  0.75756147  1.0
  Ti  Ti3175  1  0.05350940  0.97920092  0.75756147  1.0
  Ti  Ti3176  1  0.16462051  0.10420092  0.75756147  1.0
  Ti  Ti3177  1  0.16462051  0.22920092  0.75756147  1.0
  Ti  Ti3178  1  0.16462051  0.35420092  0.75756147  1.0
  Ti  Ti3179  1  0.16462051  0.47920092  0.75756147  1.0
  Ti  Ti3180  1  0.16462051  0.60420092  0.75756147  1.0
  Ti  Ti3181  1  0.16462051  0.72920092  0.75756147  1.0
  Ti  Ti3182  1  0.16462051  0.85420092  0.75756147  1.0
  Ti  Ti3183  1  0.16462051  0.97920092  0.75756147  1.0
  Ti  Ti3184  1  0.27573162  0.10420092  0.75756147  1.0
  Ti  Ti3185  1  0.27573162  0.22920092  0.75756147  1.0
  Ti  Ti3186  1  0.27573162  0.35420092  0.75756147  1.0
  Ti  Ti3187  1  0.27573162  0.47920092  0.75756147  1.0
  Ti  Ti3188  1  0.27573162  0.60420092  0.75756147  1.0
  Ti  Ti3189  1  0.27573162  0.72920092  0.75756147  1.0
  Ti  Ti3190  1  0.27573162  0.85420092  0.75756147  1.0
  Ti  Ti3191  1  0.27573162  0.97920092  0.75756147  1.0
  Ti  Ti3192  1  0.38684274  0.10420092  0.75756147  1.0
  Ti  Ti3193  1  0.38684274  0.22920092  0.75756147  1.0
  Ti  Ti3194  1  0.38684274  0.35420092  0.75756147  1.0
  Ti  Ti3195  1  0.38684274  0.47920092  0.75756147  1.0
  Ti  Ti3196  1  0.38684274  0.60420092  0.75756147  1.0
  Ti  Ti3197  1  0.38684274  0.72920092  0.75756147  1.0
  Ti  Ti3198  1  0.38684274  0.85420092  0.75756147  1.0
  Ti  Ti3199  1  0.38684274  0.97920092  0.75756147  1.0
  Ti  Ti3200  1  0.49795385  0.10420092  0.75756147  1.0
  Ti  Ti3201  1  0.49795385  0.22920092  0.75756147  1.0
  Ti  Ti3202  1  0.49795385  0.35420092  0.75756147  1.0
  Ti  Ti3203  1  0.49795385  0.47920092  0.75756147  1.0
  Ti  Ti3204  1  0.49795385  0.60420092  0.75756147  1.0
  Ti  Ti3205  1  0.49795385  0.72920092  0.75756147  1.0
  Ti  Ti3206  1  0.49795385  0.85420092  0.75756147  1.0
  Ti  Ti3207  1  0.49795385  0.97920092  0.75756147  1.0
  Ti  Ti3208  1  0.60906496  0.10420092  0.75756147  1.0
  Ti  Ti3209  1  0.60906496  0.22920092  0.75756147  1.0
  Ti  Ti3210  1  0.60906496  0.35420092  0.75756147  1.0
  Ti  Ti3211  1  0.60906496  0.47920092  0.75756147  1.0
  Ti  Ti3212  1  0.60906496  0.60420092  0.75756147  1.0
  Ti  Ti3213  1  0.60906496  0.72920092  0.75756147  1.0
  Ti  Ti3214  1  0.60906496  0.85420092  0.75756147  1.0
  Ti  Ti3215  1  0.60906496  0.97920092  0.75756147  1.0
  Ti  Ti3216  1  0.72017607  0.10420092  0.75756147  1.0
  Ti  Ti3217  1  0.72017607  0.22920092  0.75756147  1.0
  Ti  Ti3218  1  0.72017607  0.35420092  0.75756147  1.0
  Ti  Ti3219  1  0.72017607  0.47920092  0.75756147  1.0
  Ti  Ti3220  1  0.72017607  0.60420092  0.75756147  1.0
  Ti  Ti3221  1  0.72017607  0.72920092  0.75756147  1.0
  Ti  Ti3222  1  0.72017607  0.85420092  0.75756147  1.0
  Ti  Ti3223  1  0.72017607  0.97920092  0.75756147  1.0
  Ti  Ti3224  1  0.83128718  0.10420092  0.75756147  1.0
  Ti  Ti3225  1  0.83128718  0.22920092  0.75756147  1.0
  Ti  Ti3226  1  0.83128718  0.35420092  0.75756147  1.0
  Ti  Ti3227  1  0.83128718  0.47920092  0.75756147  1.0
  Ti  Ti3228  1  0.83128718  0.60420092  0.75756147  1.0
  Ti  Ti3229  1  0.83128718  0.72920092  0.75756147  1.0
  Ti  Ti3230  1  0.83128718  0.85420092  0.75756147  1.0
  Ti  Ti3231  1  0.83128718  0.97920092  0.75756147  1.0
  Ti  Ti3232  1  0.94239829  0.10420092  0.75756147  1.0
  Ti  Ti3233  1  0.94239829  0.22920092  0.75756147  1.0
  Ti  Ti3234  1  0.94239829  0.35420092  0.75756147  1.0
  Ti  Ti3235  1  0.94239829  0.47920092  0.75756147  1.0
  Ti  Ti3236  1  0.94239829  0.60420092  0.75756147  1.0
  Ti  Ti3237  1  0.94239829  0.72920092  0.75756147  1.0
  Ti  Ti3238  1  0.94239829  0.85420092  0.75756147  1.0
  Ti  Ti3239  1  0.94239829  0.97920092  0.75756147  1.0
  Ti  Ti3240  1  0.02705438  0.10420092  0.70994242  1.0
  Ti  Ti3241  1  0.02705438  0.22920092  0.70994242  1.0
  Ti  Ti3242  1  0.02705438  0.35420092  0.70994242  1.0
  Ti  Ti3243  1  0.02705438  0.47920092  0.70994242  1.0
  Ti  Ti3244  1  0.02705438  0.60420092  0.70994242  1.0
  Ti  Ti3245  1  0.02705438  0.72920092  0.70994242  1.0
  Ti  Ti3246  1  0.02705438  0.85420092  0.70994242  1.0
  Ti  Ti3247  1  0.02705438  0.97920092  0.70994242  1.0
  Ti  Ti3248  1  0.13816549  0.10420092  0.70994242  1.0
  Ti  Ti3249  1  0.13816549  0.22920092  0.70994242  1.0
  Ti  Ti3250  1  0.13816549  0.35420092  0.70994242  1.0
  Ti  Ti3251  1  0.13816549  0.47920092  0.70994242  1.0
  Ti  Ti3252  1  0.13816549  0.60420092  0.70994242  1.0
  Ti  Ti3253  1  0.13816549  0.72920092  0.70994242  1.0
  Ti  Ti3254  1  0.13816549  0.85420092  0.70994242  1.0
  Ti  Ti3255  1  0.13816549  0.97920092  0.70994242  1.0
  Ti  Ti3256  1  0.24927660  0.10420092  0.70994242  1.0
  Ti  Ti3257  1  0.24927660  0.22920092  0.70994242  1.0
  Ti  Ti3258  1  0.24927660  0.35420092  0.70994242  1.0
  Ti  Ti3259  1  0.24927660  0.47920092  0.70994242  1.0
  Ti  Ti3260  1  0.24927660  0.60420092  0.70994242  1.0
  Ti  Ti3261  1  0.24927660  0.72920092  0.70994242  1.0
  Ti  Ti3262  1  0.24927660  0.85420092  0.70994242  1.0
  Ti  Ti3263  1  0.24927660  0.97920092  0.70994242  1.0
  Ti  Ti3264  1  0.36038771  0.10420092  0.70994242  1.0
  Ti  Ti3265  1  0.36038771  0.22920092  0.70994242  1.0
  Ti  Ti3266  1  0.36038771  0.35420092  0.70994242  1.0
  Ti  Ti3267  1  0.36038771  0.47920092  0.70994242  1.0
  Ti  Ti3268  1  0.36038771  0.60420092  0.70994242  1.0
  Ti  Ti3269  1  0.36038771  0.72920092  0.70994242  1.0
  Ti  Ti3270  1  0.36038771  0.85420092  0.70994242  1.0
  Ti  Ti3271  1  0.36038771  0.97920092  0.70994242  1.0
  Ti  Ti3272  1  0.47149882  0.10420092  0.70994242  1.0
  Ti  Ti3273  1  0.47149882  0.22920092  0.70994242  1.0
  Ti  Ti3274  1  0.47149882  0.35420092  0.70994242  1.0
  Ti  Ti3275  1  0.47149882  0.47920092  0.70994242  1.0
  Ti  Ti3276  1  0.47149882  0.60420092  0.70994242  1.0
  Ti  Ti3277  1  0.47149882  0.72920092  0.70994242  1.0
  Ti  Ti3278  1  0.47149882  0.85420092  0.70994242  1.0
  Ti  Ti3279  1  0.47149882  0.97920092  0.70994242  1.0
  Ti  Ti3280  1  0.58260993  0.10420092  0.70994242  1.0
  Ti  Ti3281  1  0.58260993  0.22920092  0.70994242  1.0
  Ti  Ti3282  1  0.58260993  0.35420092  0.70994242  1.0
  Ti  Ti3283  1  0.58260993  0.47920092  0.70994242  1.0
  Ti  Ti3284  1  0.58260993  0.60420092  0.70994242  1.0
  Ti  Ti3285  1  0.58260993  0.72920092  0.70994242  1.0
  Ti  Ti3286  1  0.58260993  0.85420092  0.70994242  1.0
  Ti  Ti3287  1  0.58260993  0.97920092  0.70994242  1.0
  Ti  Ti3288  1  0.69372104  0.10420092  0.70994242  1.0
  Ti  Ti3289  1  0.69372104  0.22920092  0.70994242  1.0
  Ti  Ti3290  1  0.69372104  0.35420092  0.70994242  1.0
  Ti  Ti3291  1  0.69372104  0.47920092  0.70994242  1.0
  Ti  Ti3292  1  0.69372104  0.60420092  0.70994242  1.0
  Ti  Ti3293  1  0.69372104  0.72920092  0.70994242  1.0
  Ti  Ti3294  1  0.69372104  0.85420092  0.70994242  1.0
  Ti  Ti3295  1  0.69372104  0.97920092  0.70994242  1.0
  Ti  Ti3296  1  0.80483215  0.10420092  0.70994242  1.0
  Ti  Ti3297  1  0.80483215  0.22920092  0.70994242  1.0
  Ti  Ti3298  1  0.80483215  0.35420092  0.70994242  1.0
  Ti  Ti3299  1  0.80483215  0.47920092  0.70994242  1.0
  Ti  Ti3300  1  0.80483215  0.60420092  0.70994242  1.0
  Ti  Ti3301  1  0.80483215  0.72920092  0.70994242  1.0
  Ti  Ti3302  1  0.80483215  0.85420092  0.70994242  1.0
  Ti  Ti3303  1  0.80483215  0.97920092  0.70994242  1.0
  Ti  Ti3304  1  0.91594327  0.10420092  0.70994242  1.0
  Ti  Ti3305  1  0.91594327  0.22920092  0.70994242  1.0
  Ti  Ti3306  1  0.91594327  0.35420092  0.70994242  1.0
  Ti  Ti3307  1  0.91594327  0.47920092  0.70994242  1.0
  Ti  Ti3308  1  0.91594327  0.60420092  0.70994242  1.0
  Ti  Ti3309  1  0.91594327  0.72920092  0.70994242  1.0
  Ti  Ti3310  1  0.91594327  0.85420092  0.70994242  1.0
  Ti  Ti3311  1  0.91594327  0.97920092  0.70994242  1.0
  P  P3312  1  0.08196466  0.10787809  0.27280538  1.0
  P  P3313  1  0.08196466  0.23287809  0.27280538  1.0
  P  P3314  1  0.08196466  0.35787809  0.27280538  1.0
  P  P3315  1  0.08196466  0.48287809  0.27280538  1.0
  P  P3316  1  0.08196466  0.60787809  0.27280538  1.0
  P  P3317  1  0.08196466  0.73287809  0.27280538  1.0
  P  P3318  1  0.08196466  0.85787809  0.27280538  1.0
  P  P3319  1  0.08196466  0.98287809  0.27280538  1.0
  P  P3320  1  0.19307577  0.10787809  0.27280538  1.0
  P  P3321  1  0.19307577  0.23287809  0.27280538  1.0
  P  P3322  1  0.19307577  0.35787809  0.27280538  1.0
  P  P3323  1  0.19307577  0.48287809  0.27280538  1.0
  P  P3324  1  0.19307577  0.60787809  0.27280538  1.0
  P  P3325  1  0.19307577  0.73287809  0.27280538  1.0
  P  P3326  1  0.19307577  0.85787809  0.27280538  1.0
  P  P3327  1  0.19307577  0.98287809  0.27280538  1.0
  P  P3328  1  0.30418689  0.10787809  0.27280538  1.0
  P  P3329  1  0.30418689  0.23287809  0.27280538  1.0
  P  P3330  1  0.30418689  0.35787809  0.27280538  1.0
  P  P3331  1  0.30418689  0.48287809  0.27280538  1.0
  P  P3332  1  0.30418689  0.60787809  0.27280538  1.0
  P  P3333  1  0.30418689  0.73287809  0.27280538  1.0
  P  P3334  1  0.30418689  0.85787809  0.27280538  1.0
  P  P3335  1  0.30418689  0.98287809  0.27280538  1.0
  P  P3336  1  0.41529800  0.10787809  0.27280538  1.0
  P  P3337  1  0.41529800  0.23287809  0.27280538  1.0
  P  P3338  1  0.41529800  0.35787809  0.27280538  1.0
  P  P3339  1  0.41529800  0.48287809  0.27280538  1.0
  P  P3340  1  0.41529800  0.60787809  0.27280538  1.0
  P  P3341  1  0.41529800  0.73287809  0.27280538  1.0
  P  P3342  1  0.41529800  0.85787809  0.27280538  1.0
  P  P3343  1  0.41529800  0.98287809  0.27280538  1.0
  P  P3344  1  0.52640911  0.10787809  0.27280538  1.0
  P  P3345  1  0.52640911  0.23287809  0.27280538  1.0
  P  P3346  1  0.52640911  0.35787809  0.27280538  1.0
  P  P3347  1  0.52640911  0.48287809  0.27280538  1.0
  P  P3348  1  0.52640911  0.60787809  0.27280538  1.0
  P  P3349  1  0.52640911  0.73287809  0.27280538  1.0
  P  P3350  1  0.52640911  0.85787809  0.27280538  1.0
  P  P3351  1  0.52640911  0.98287809  0.27280538  1.0
  P  P3352  1  0.63752022  0.10787809  0.27280538  1.0
  P  P3353  1  0.63752022  0.23287809  0.27280538  1.0
  P  P3354  1  0.63752022  0.35787809  0.27280538  1.0
  P  P3355  1  0.63752022  0.48287809  0.27280538  1.0
  P  P3356  1  0.63752022  0.60787809  0.27280538  1.0
  P  P3357  1  0.63752022  0.73287809  0.27280538  1.0
  P  P3358  1  0.63752022  0.85787809  0.27280538  1.0
  P  P3359  1  0.63752022  0.98287809  0.27280538  1.0
  P  P3360  1  0.74863133  0.10787809  0.27280538  1.0
  P  P3361  1  0.74863133  0.23287809  0.27280538  1.0
  P  P3362  1  0.74863133  0.35787809  0.27280538  1.0
  P  P3363  1  0.74863133  0.48287809  0.27280538  1.0
  P  P3364  1  0.74863133  0.60787809  0.27280538  1.0
  P  P3365  1  0.74863133  0.73287809  0.27280538  1.0
  P  P3366  1  0.74863133  0.85787809  0.27280538  1.0
  P  P3367  1  0.74863133  0.98287809  0.27280538  1.0
  P  P3368  1  0.85974244  0.10787809  0.27280538  1.0
  P  P3369  1  0.85974244  0.23287809  0.27280538  1.0
  P  P3370  1  0.85974244  0.35787809  0.27280538  1.0
  P  P3371  1  0.85974244  0.48287809  0.27280538  1.0
  P  P3372  1  0.85974244  0.60787809  0.27280538  1.0
  P  P3373  1  0.85974244  0.73287809  0.27280538  1.0
  P  P3374  1  0.85974244  0.85787809  0.27280538  1.0
  P  P3375  1  0.85974244  0.98287809  0.27280538  1.0
  P  P3376  1  0.97085355  0.10787809  0.27280538  1.0
  P  P3377  1  0.97085355  0.23287809  0.27280538  1.0
  P  P3378  1  0.97085355  0.35787809  0.27280538  1.0
  P  P3379  1  0.97085355  0.48287809  0.27280538  1.0
  P  P3380  1  0.97085355  0.60787809  0.27280538  1.0
  P  P3381  1  0.97085355  0.73287809  0.27280538  1.0
  P  P3382  1  0.97085355  0.85787809  0.27280538  1.0
  P  P3383  1  0.97085355  0.98287809  0.27280538  1.0
  P  P3384  1  0.05550964  0.10787809  0.22518634  1.0
  P  P3385  1  0.05550964  0.23287809  0.22518634  1.0
  P  P3386  1  0.05550964  0.35787809  0.22518634  1.0
  P  P3387  1  0.05550964  0.48287809  0.22518634  1.0
  P  P3388  1  0.05550964  0.60787809  0.22518634  1.0
  P  P3389  1  0.05550964  0.73287809  0.22518634  1.0
  P  P3390  1  0.05550964  0.85787809  0.22518634  1.0
  P  P3391  1  0.05550964  0.98287809  0.22518634  1.0
  P  P3392  1  0.16662075  0.10787809  0.22518634  1.0
  P  P3393  1  0.16662075  0.23287809  0.22518634  1.0
  P  P3394  1  0.16662075  0.35787809  0.22518634  1.0
  P  P3395  1  0.16662075  0.48287809  0.22518634  1.0
  P  P3396  1  0.16662075  0.60787809  0.22518634  1.0
  P  P3397  1  0.16662075  0.73287809  0.22518634  1.0
  P  P3398  1  0.16662075  0.85787809  0.22518634  1.0
  P  P3399  1  0.16662075  0.98287809  0.22518634  1.0
  P  P3400  1  0.27773186  0.10787809  0.22518634  1.0
  P  P3401  1  0.27773186  0.23287809  0.22518634  1.0
  P  P3402  1  0.27773186  0.35787809  0.22518634  1.0
  P  P3403  1  0.27773186  0.48287809  0.22518634  1.0
  P  P3404  1  0.27773186  0.60787809  0.22518634  1.0
  P  P3405  1  0.27773186  0.73287809  0.22518634  1.0
  P  P3406  1  0.27773186  0.85787809  0.22518634  1.0
  P  P3407  1  0.27773186  0.98287809  0.22518634  1.0
  P  P3408  1  0.38884297  0.10787809  0.22518634  1.0
  P  P3409  1  0.38884297  0.23287809  0.22518634  1.0
  P  P3410  1  0.38884297  0.35787809  0.22518634  1.0
  P  P3411  1  0.38884297  0.48287809  0.22518634  1.0
  P  P3412  1  0.38884297  0.60787809  0.22518634  1.0
  P  P3413  1  0.38884297  0.73287809  0.22518634  1.0
  P  P3414  1  0.38884297  0.85787809  0.22518634  1.0
  P  P3415  1  0.38884297  0.98287809  0.22518634  1.0
  P  P3416  1  0.49995408  0.10787809  0.22518634  1.0
  P  P3417  1  0.49995408  0.23287809  0.22518634  1.0
  P  P3418  1  0.49995408  0.35787809  0.22518634  1.0
  P  P3419  1  0.49995408  0.48287809  0.22518634  1.0
  P  P3420  1  0.49995408  0.60787809  0.22518634  1.0
  P  P3421  1  0.49995408  0.73287809  0.22518634  1.0
  P  P3422  1  0.49995408  0.85787809  0.22518634  1.0
  P  P3423  1  0.49995408  0.98287809  0.22518634  1.0
  P  P3424  1  0.61106519  0.10787809  0.22518634  1.0
  P  P3425  1  0.61106519  0.23287809  0.22518634  1.0
  P  P3426  1  0.61106519  0.35787809  0.22518634  1.0
  P  P3427  1  0.61106519  0.48287809  0.22518634  1.0
  P  P3428  1  0.61106519  0.60787809  0.22518634  1.0
  P  P3429  1  0.61106519  0.73287809  0.22518634  1.0
  P  P3430  1  0.61106519  0.85787809  0.22518634  1.0
  P  P3431  1  0.61106519  0.98287809  0.22518634  1.0
  P  P3432  1  0.72217630  0.10787809  0.22518634  1.0
  P  P3433  1  0.72217630  0.23287809  0.22518634  1.0
  P  P3434  1  0.72217630  0.35787809  0.22518634  1.0
  P  P3435  1  0.72217630  0.48287809  0.22518634  1.0
  P  P3436  1  0.72217630  0.60787809  0.22518634  1.0
  P  P3437  1  0.72217630  0.73287809  0.22518634  1.0
  P  P3438  1  0.72217630  0.85787809  0.22518634  1.0
  P  P3439  1  0.72217630  0.98287809  0.22518634  1.0
  P  P3440  1  0.83328741  0.10787809  0.22518634  1.0
  P  P3441  1  0.83328741  0.23287809  0.22518634  1.0
  P  P3442  1  0.83328741  0.35787809  0.22518634  1.0
  P  P3443  1  0.83328741  0.48287809  0.22518634  1.0
  P  P3444  1  0.83328741  0.60787809  0.22518634  1.0
  P  P3445  1  0.83328741  0.73287809  0.22518634  1.0
  P  P3446  1  0.83328741  0.85787809  0.22518634  1.0
  P  P3447  1  0.83328741  0.98287809  0.22518634  1.0
  P  P3448  1  0.94439853  0.10787809  0.22518634  1.0
  P  P3449  1  0.94439853  0.23287809  0.22518634  1.0
  P  P3450  1  0.94439853  0.35787809  0.22518634  1.0
  P  P3451  1  0.94439853  0.48287809  0.22518634  1.0
  P  P3452  1  0.94439853  0.60787809  0.22518634  1.0
  P  P3453  1  0.94439853  0.73287809  0.22518634  1.0
  P  P3454  1  0.94439853  0.85787809  0.22518634  1.0
  P  P3455  1  0.94439853  0.98287809  0.22518634  1.0
  P  P3456  1  0.10841969  0.10787809  0.32042443  1.0
  P  P3457  1  0.10841969  0.23287809  0.32042443  1.0
  P  P3458  1  0.10841969  0.35787809  0.32042443  1.0
  P  P3459  1  0.10841969  0.48287809  0.32042443  1.0
  P  P3460  1  0.10841969  0.60787809  0.32042443  1.0
  P  P3461  1  0.10841969  0.73287809  0.32042443  1.0
  P  P3462  1  0.10841969  0.85787809  0.32042443  1.0
  P  P3463  1  0.10841969  0.98287809  0.32042443  1.0
  P  P3464  1  0.21953080  0.10787809  0.32042443  1.0
  P  P3465  1  0.21953080  0.23287809  0.32042443  1.0
  P  P3466  1  0.21953080  0.35787809  0.32042443  1.0
  P  P3467  1  0.21953080  0.48287809  0.32042443  1.0
  P  P3468  1  0.21953080  0.60787809  0.32042443  1.0
  P  P3469  1  0.21953080  0.73287809  0.32042443  1.0
  P  P3470  1  0.21953080  0.85787809  0.32042443  1.0
  P  P3471  1  0.21953080  0.98287809  0.32042443  1.0
  P  P3472  1  0.33064191  0.10787809  0.32042443  1.0
  P  P3473  1  0.33064191  0.23287809  0.32042443  1.0
  P  P3474  1  0.33064191  0.35787809  0.32042443  1.0
  P  P3475  1  0.33064191  0.48287809  0.32042443  1.0
  P  P3476  1  0.33064191  0.60787809  0.32042443  1.0
  P  P3477  1  0.33064191  0.73287809  0.32042443  1.0
  P  P3478  1  0.33064191  0.85787809  0.32042443  1.0
  P  P3479  1  0.33064191  0.98287809  0.32042443  1.0
  P  P3480  1  0.44175302  0.10787809  0.32042443  1.0
  P  P3481  1  0.44175302  0.23287809  0.32042443  1.0
  P  P3482  1  0.44175302  0.35787809  0.32042443  1.0
  P  P3483  1  0.44175302  0.48287809  0.32042443  1.0
  P  P3484  1  0.44175302  0.60787809  0.32042443  1.0
  P  P3485  1  0.44175302  0.73287809  0.32042443  1.0
  P  P3486  1  0.44175302  0.85787809  0.32042443  1.0
  P  P3487  1  0.44175302  0.98287809  0.32042443  1.0
  P  P3488  1  0.55286413  0.10787809  0.32042443  1.0
  P  P3489  1  0.55286413  0.23287809  0.32042443  1.0
  P  P3490  1  0.55286413  0.35787809  0.32042443  1.0
  P  P3491  1  0.55286413  0.48287809  0.32042443  1.0
  P  P3492  1  0.55286413  0.60787809  0.32042443  1.0
  P  P3493  1  0.55286413  0.73287809  0.32042443  1.0
  P  P3494  1  0.55286413  0.85787809  0.32042443  1.0
  P  P3495  1  0.55286413  0.98287809  0.32042443  1.0
  P  P3496  1  0.66397524  0.10787809  0.32042443  1.0
  P  P3497  1  0.66397524  0.23287809  0.32042443  1.0
  P  P3498  1  0.66397524  0.35787809  0.32042443  1.0
  P  P3499  1  0.66397524  0.48287809  0.32042443  1.0
  P  P3500  1  0.66397524  0.60787809  0.32042443  1.0
  P  P3501  1  0.66397524  0.73287809  0.32042443  1.0
  P  P3502  1  0.66397524  0.85787809  0.32042443  1.0
  P  P3503  1  0.66397524  0.98287809  0.32042443  1.0
  P  P3504  1  0.77508636  0.10787809  0.32042443  1.0
  P  P3505  1  0.77508636  0.23287809  0.32042443  1.0
  P  P3506  1  0.77508636  0.35787809  0.32042443  1.0
  P  P3507  1  0.77508636  0.48287809  0.32042443  1.0
  P  P3508  1  0.77508636  0.60787809  0.32042443  1.0
  P  P3509  1  0.77508636  0.73287809  0.32042443  1.0
  P  P3510  1  0.77508636  0.85787809  0.32042443  1.0
  P  P3511  1  0.77508636  0.98287809  0.32042443  1.0
  P  P3512  1  0.88619747  0.10787809  0.32042443  1.0
  P  P3513  1  0.88619747  0.23287809  0.32042443  1.0
  P  P3514  1  0.88619747  0.35787809  0.32042443  1.0
  P  P3515  1  0.88619747  0.48287809  0.32042443  1.0
  P  P3516  1  0.88619747  0.60787809  0.32042443  1.0
  P  P3517  1  0.88619747  0.73287809  0.32042443  1.0
  P  P3518  1  0.88619747  0.85787809  0.32042443  1.0
  P  P3519  1  0.88619747  0.98287809  0.32042443  1.0
  P  P3520  1  0.99730858  0.10787809  0.32042443  1.0
  P  P3521  1  0.99730858  0.23287809  0.32042443  1.0
  P  P3522  1  0.99730858  0.35787809  0.32042443  1.0
  P  P3523  1  0.99730858  0.48287809  0.32042443  1.0
  P  P3524  1  0.99730858  0.60787809  0.32042443  1.0
  P  P3525  1  0.99730858  0.73287809  0.32042443  1.0
  P  P3526  1  0.99730858  0.85787809  0.32042443  1.0
  P  P3527  1  0.99730858  0.98287809  0.32042443  1.0
  P  P3528  1  0.08361722  0.01712191  0.24062582  1.0
  P  P3529  1  0.08361722  0.14212191  0.24062582  1.0
  P  P3530  1  0.08361722  0.26712191  0.24062582  1.0
  P  P3531  1  0.08361722  0.39212191  0.24062582  1.0
  P  P3532  1  0.08361722  0.51712191  0.24062582  1.0
  P  P3533  1  0.08361722  0.64212191  0.24062582  1.0
  P  P3534  1  0.08361722  0.76712191  0.24062582  1.0
  P  P3535  1  0.08361722  0.89212191  0.24062582  1.0
  P  P3536  1  0.19472834  0.01712191  0.24062582  1.0
  P  P3537  1  0.19472834  0.14212191  0.24062582  1.0
  P  P3538  1  0.19472834  0.26712191  0.24062582  1.0
  P  P3539  1  0.19472834  0.39212191  0.24062582  1.0
  P  P3540  1  0.19472834  0.51712191  0.24062582  1.0
  P  P3541  1  0.19472834  0.64212191  0.24062582  1.0
  P  P3542  1  0.19472834  0.76712191  0.24062582  1.0
  P  P3543  1  0.19472834  0.89212191  0.24062582  1.0
  P  P3544  1  0.30583945  0.01712191  0.24062582  1.0
  P  P3545  1  0.30583945  0.14212191  0.24062582  1.0
  P  P3546  1  0.30583945  0.26712191  0.24062582  1.0
  P  P3547  1  0.30583945  0.39212191  0.24062582  1.0
  P  P3548  1  0.30583945  0.51712191  0.24062582  1.0
  P  P3549  1  0.30583945  0.64212191  0.24062582  1.0
  P  P3550  1  0.30583945  0.76712191  0.24062582  1.0
  P  P3551  1  0.30583945  0.89212191  0.24062582  1.0
  P  P3552  1  0.41695056  0.01712191  0.24062582  1.0
  P  P3553  1  0.41695056  0.14212191  0.24062582  1.0
  P  P3554  1  0.41695056  0.26712191  0.24062582  1.0
  P  P3555  1  0.41695056  0.39212191  0.24062582  1.0
  P  P3556  1  0.41695056  0.51712191  0.24062582  1.0
  P  P3557  1  0.41695056  0.64212191  0.24062582  1.0
  P  P3558  1  0.41695056  0.76712191  0.24062582  1.0
  P  P3559  1  0.41695056  0.89212191  0.24062582  1.0
  P  P3560  1  0.52806167  0.01712191  0.24062582  1.0
  P  P3561  1  0.52806167  0.14212191  0.24062582  1.0
  P  P3562  1  0.52806167  0.26712191  0.24062582  1.0
  P  P3563  1  0.52806167  0.39212191  0.24062582  1.0
  P  P3564  1  0.52806167  0.51712191  0.24062582  1.0
  P  P3565  1  0.52806167  0.64212191  0.24062582  1.0
  P  P3566  1  0.52806167  0.76712191  0.24062582  1.0
  P  P3567  1  0.52806167  0.89212191  0.24062582  1.0
  P  P3568  1  0.63917278  0.01712191  0.24062582  1.0
  P  P3569  1  0.63917278  0.14212191  0.24062582  1.0
  P  P3570  1  0.63917278  0.26712191  0.24062582  1.0
  P  P3571  1  0.63917278  0.39212191  0.24062582  1.0
  P  P3572  1  0.63917278  0.51712191  0.24062582  1.0
  P  P3573  1  0.63917278  0.64212191  0.24062582  1.0
  P  P3574  1  0.63917278  0.76712191  0.24062582  1.0
  P  P3575  1  0.63917278  0.89212191  0.24062582  1.0
  P  P3576  1  0.75028389  0.01712191  0.24062582  1.0
  P  P3577  1  0.75028389  0.14212191  0.24062582  1.0
  P  P3578  1  0.75028389  0.26712191  0.24062582  1.0
  P  P3579  1  0.75028389  0.39212191  0.24062582  1.0
  P  P3580  1  0.75028389  0.51712191  0.24062582  1.0
  P  P3581  1  0.75028389  0.64212191  0.24062582  1.0
  P  P3582  1  0.75028389  0.76712191  0.24062582  1.0
  P  P3583  1  0.75028389  0.89212191  0.24062582  1.0
  P  P3584  1  0.86139500  0.01712191  0.24062582  1.0
  P  P3585  1  0.86139500  0.14212191  0.24062582  1.0
  P  P3586  1  0.86139500  0.26712191  0.24062582  1.0
  P  P3587  1  0.86139500  0.39212191  0.24062582  1.0
  P  P3588  1  0.86139500  0.51712191  0.24062582  1.0
  P  P3589  1  0.86139500  0.64212191  0.24062582  1.0
  P  P3590  1  0.86139500  0.76712191  0.24062582  1.0
  P  P3591  1  0.86139500  0.89212191  0.24062582  1.0
  P  P3592  1  0.97250611  0.01712191  0.24062582  1.0
  P  P3593  1  0.97250611  0.14212191  0.24062582  1.0
  P  P3594  1  0.97250611  0.26712191  0.24062582  1.0
  P  P3595  1  0.97250611  0.39212191  0.24062582  1.0
  P  P3596  1  0.97250611  0.51712191  0.24062582  1.0
  P  P3597  1  0.97250611  0.64212191  0.24062582  1.0
  P  P3598  1  0.97250611  0.76712191  0.24062582  1.0
  P  P3599  1  0.97250611  0.89212191  0.24062582  1.0
  P  P3600  1  0.02541617  0.01712191  0.33586391  1.0
  P  P3601  1  0.02541617  0.14212191  0.33586391  1.0
  P  P3602  1  0.02541617  0.26712191  0.33586391  1.0
  P  P3603  1  0.02541617  0.39212191  0.33586391  1.0
  P  P3604  1  0.02541617  0.51712191  0.33586391  1.0
  P  P3605  1  0.02541617  0.64212191  0.33586391  1.0
  P  P3606  1  0.02541617  0.76712191  0.33586391  1.0
  P  P3607  1  0.02541617  0.89212191  0.33586391  1.0
  P  P3608  1  0.13652728  0.01712191  0.33586391  1.0
  P  P3609  1  0.13652728  0.14212191  0.33586391  1.0
  P  P3610  1  0.13652728  0.26712191  0.33586391  1.0
  P  P3611  1  0.13652728  0.39212191  0.33586391  1.0
  P  P3612  1  0.13652728  0.51712191  0.33586391  1.0
  P  P3613  1  0.13652728  0.64212191  0.33586391  1.0
  P  P3614  1  0.13652728  0.76712191  0.33586391  1.0
  P  P3615  1  0.13652728  0.89212191  0.33586391  1.0
  P  P3616  1  0.24763839  0.01712191  0.33586391  1.0
  P  P3617  1  0.24763839  0.14212191  0.33586391  1.0
  P  P3618  1  0.24763839  0.26712191  0.33586391  1.0
  P  P3619  1  0.24763839  0.39212191  0.33586391  1.0
  P  P3620  1  0.24763839  0.51712191  0.33586391  1.0
  P  P3621  1  0.24763839  0.64212191  0.33586391  1.0
  P  P3622  1  0.24763839  0.76712191  0.33586391  1.0
  P  P3623  1  0.24763839  0.89212191  0.33586391  1.0
  P  P3624  1  0.35874950  0.01712191  0.33586391  1.0
  P  P3625  1  0.35874950  0.14212191  0.33586391  1.0
  P  P3626  1  0.35874950  0.26712191  0.33586391  1.0
  P  P3627  1  0.35874950  0.39212191  0.33586391  1.0
  P  P3628  1  0.35874950  0.51712191  0.33586391  1.0
  P  P3629  1  0.35874950  0.64212191  0.33586391  1.0
  P  P3630  1  0.35874950  0.76712191  0.33586391  1.0
  P  P3631  1  0.35874950  0.89212191  0.33586391  1.0
  P  P3632  1  0.46986061  0.01712191  0.33586391  1.0
  P  P3633  1  0.46986061  0.14212191  0.33586391  1.0
  P  P3634  1  0.46986061  0.26712191  0.33586391  1.0
  P  P3635  1  0.46986061  0.39212191  0.33586391  1.0
  P  P3636  1  0.46986061  0.51712191  0.33586391  1.0
  P  P3637  1  0.46986061  0.64212191  0.33586391  1.0
  P  P3638  1  0.46986061  0.76712191  0.33586391  1.0
  P  P3639  1  0.46986061  0.89212191  0.33586391  1.0
  P  P3640  1  0.58097172  0.01712191  0.33586391  1.0
  P  P3641  1  0.58097172  0.14212191  0.33586391  1.0
  P  P3642  1  0.58097172  0.26712191  0.33586391  1.0
  P  P3643  1  0.58097172  0.39212191  0.33586391  1.0
  P  P3644  1  0.58097172  0.51712191  0.33586391  1.0
  P  P3645  1  0.58097172  0.64212191  0.33586391  1.0
  P  P3646  1  0.58097172  0.76712191  0.33586391  1.0
  P  P3647  1  0.58097172  0.89212191  0.33586391  1.0
  P  P3648  1  0.69208283  0.01712191  0.33586391  1.0
  P  P3649  1  0.69208283  0.14212191  0.33586391  1.0
  P  P3650  1  0.69208283  0.26712191  0.33586391  1.0
  P  P3651  1  0.69208283  0.39212191  0.33586391  1.0
  P  P3652  1  0.69208283  0.51712191  0.33586391  1.0
  P  P3653  1  0.69208283  0.64212191  0.33586391  1.0
  P  P3654  1  0.69208283  0.76712191  0.33586391  1.0
  P  P3655  1  0.69208283  0.89212191  0.33586391  1.0
  P  P3656  1  0.80319394  0.01712191  0.33586391  1.0
  P  P3657  1  0.80319394  0.14212191  0.33586391  1.0
  P  P3658  1  0.80319394  0.26712191  0.33586391  1.0
  P  P3659  1  0.80319394  0.39212191  0.33586391  1.0
  P  P3660  1  0.80319394  0.51712191  0.33586391  1.0
  P  P3661  1  0.80319394  0.64212191  0.33586391  1.0
  P  P3662  1  0.80319394  0.76712191  0.33586391  1.0
  P  P3663  1  0.80319394  0.89212191  0.33586391  1.0
  P  P3664  1  0.91430505  0.01712191  0.33586391  1.0
  P  P3665  1  0.91430505  0.14212191  0.33586391  1.0
  P  P3666  1  0.91430505  0.26712191  0.33586391  1.0
  P  P3667  1  0.91430505  0.39212191  0.33586391  1.0
  P  P3668  1  0.91430505  0.51712191  0.33586391  1.0
  P  P3669  1  0.91430505  0.64212191  0.33586391  1.0
  P  P3670  1  0.91430505  0.76712191  0.33586391  1.0
  P  P3671  1  0.91430505  0.89212191  0.33586391  1.0
  P  P3672  1  0.11007225  0.01712191  0.28824487  1.0
  P  P3673  1  0.11007225  0.14212191  0.28824487  1.0
  P  P3674  1  0.11007225  0.26712191  0.28824487  1.0
  P  P3675  1  0.11007225  0.39212191  0.28824487  1.0
  P  P3676  1  0.11007225  0.51712191  0.28824487  1.0
  P  P3677  1  0.11007225  0.64212191  0.28824487  1.0
  P  P3678  1  0.11007225  0.76712191  0.28824487  1.0
  P  P3679  1  0.11007225  0.89212191  0.28824487  1.0
  P  P3680  1  0.22118336  0.01712191  0.28824487  1.0
  P  P3681  1  0.22118336  0.14212191  0.28824487  1.0
  P  P3682  1  0.22118336  0.26712191  0.28824487  1.0
  P  P3683  1  0.22118336  0.39212191  0.28824487  1.0
  P  P3684  1  0.22118336  0.51712191  0.28824487  1.0
  P  P3685  1  0.22118336  0.64212191  0.28824487  1.0
  P  P3686  1  0.22118336  0.76712191  0.28824487  1.0
  P  P3687  1  0.22118336  0.89212191  0.28824487  1.0
  P  P3688  1  0.33229447  0.01712191  0.28824487  1.0
  P  P3689  1  0.33229447  0.14212191  0.28824487  1.0
  P  P3690  1  0.33229447  0.26712191  0.28824487  1.0
  P  P3691  1  0.33229447  0.39212191  0.28824487  1.0
  P  P3692  1  0.33229447  0.51712191  0.28824487  1.0
  P  P3693  1  0.33229447  0.64212191  0.28824487  1.0
  P  P3694  1  0.33229447  0.76712191  0.28824487  1.0
  P  P3695  1  0.33229447  0.89212191  0.28824487  1.0
  P  P3696  1  0.44340558  0.01712191  0.28824487  1.0
  P  P3697  1  0.44340558  0.14212191  0.28824487  1.0
  P  P3698  1  0.44340558  0.26712191  0.28824487  1.0
  P  P3699  1  0.44340558  0.39212191  0.28824487  1.0
  P  P3700  1  0.44340558  0.51712191  0.28824487  1.0
  P  P3701  1  0.44340558  0.64212191  0.28824487  1.0
  P  P3702  1  0.44340558  0.76712191  0.28824487  1.0
  P  P3703  1  0.44340558  0.89212191  0.28824487  1.0
  P  P3704  1  0.55451669  0.01712191  0.28824487  1.0
  P  P3705  1  0.55451669  0.14212191  0.28824487  1.0
  P  P3706  1  0.55451669  0.26712191  0.28824487  1.0
  P  P3707  1  0.55451669  0.39212191  0.28824487  1.0
  P  P3708  1  0.55451669  0.51712191  0.28824487  1.0
  P  P3709  1  0.55451669  0.64212191  0.28824487  1.0
  P  P3710  1  0.55451669  0.76712191  0.28824487  1.0
  P  P3711  1  0.55451669  0.89212191  0.28824487  1.0
  P  P3712  1  0.66562781  0.01712191  0.28824487  1.0
  P  P3713  1  0.66562781  0.14212191  0.28824487  1.0
  P  P3714  1  0.66562781  0.26712191  0.28824487  1.0
  P  P3715  1  0.66562781  0.39212191  0.28824487  1.0
  P  P3716  1  0.66562781  0.51712191  0.28824487  1.0
  P  P3717  1  0.66562781  0.64212191  0.28824487  1.0
  P  P3718  1  0.66562781  0.76712191  0.28824487  1.0
  P  P3719  1  0.66562781  0.89212191  0.28824487  1.0
  P  P3720  1  0.77673892  0.01712191  0.28824487  1.0
  P  P3721  1  0.77673892  0.14212191  0.28824487  1.0
  P  P3722  1  0.77673892  0.26712191  0.28824487  1.0
  P  P3723  1  0.77673892  0.39212191  0.28824487  1.0
  P  P3724  1  0.77673892  0.51712191  0.28824487  1.0
  P  P3725  1  0.77673892  0.64212191  0.28824487  1.0
  P  P3726  1  0.77673892  0.76712191  0.28824487  1.0
  P  P3727  1  0.77673892  0.89212191  0.28824487  1.0
  P  P3728  1  0.88785003  0.01712191  0.28824487  1.0
  P  P3729  1  0.88785003  0.14212191  0.28824487  1.0
  P  P3730  1  0.88785003  0.26712191  0.28824487  1.0
  P  P3731  1  0.88785003  0.39212191  0.28824487  1.0
  P  P3732  1  0.88785003  0.51712191  0.28824487  1.0
  P  P3733  1  0.88785003  0.64212191  0.28824487  1.0
  P  P3734  1  0.88785003  0.76712191  0.28824487  1.0
  P  P3735  1  0.88785003  0.89212191  0.28824487  1.0
  P  P3736  1  0.99896114  0.01712191  0.28824487  1.0
  P  P3737  1  0.99896114  0.14212191  0.28824487  1.0
  P  P3738  1  0.99896114  0.26712191  0.28824487  1.0
  P  P3739  1  0.99896114  0.39212191  0.28824487  1.0
  P  P3740  1  0.99896114  0.51712191  0.28824487  1.0
  P  P3741  1  0.99896114  0.64212191  0.28824487  1.0
  P  P3742  1  0.99896114  0.76712191  0.28824487  1.0
  P  P3743  1  0.99896114  0.89212191  0.28824487  1.0
  P  P3744  1  0.01318159  0.07962191  0.24899586  1.0
  P  P3745  1  0.01318159  0.20462191  0.24899586  1.0
  P  P3746  1  0.01318159  0.32962191  0.24899586  1.0
  P  P3747  1  0.01318159  0.45462191  0.24899586  1.0
  P  P3748  1  0.01318159  0.57962191  0.24899586  1.0
  P  P3749  1  0.01318159  0.70462191  0.24899586  1.0
  P  P3750  1  0.01318159  0.82962191  0.24899586  1.0
  P  P3751  1  0.01318159  0.95462191  0.24899586  1.0
  P  P3752  1  0.12429271  0.07962191  0.24899586  1.0
  P  P3753  1  0.12429271  0.20462191  0.24899586  1.0
  P  P3754  1  0.12429271  0.32962191  0.24899586  1.0
  P  P3755  1  0.12429271  0.45462191  0.24899586  1.0
  P  P3756  1  0.12429271  0.57962191  0.24899586  1.0
  P  P3757  1  0.12429271  0.70462191  0.24899586  1.0
  P  P3758  1  0.12429271  0.82962191  0.24899586  1.0
  P  P3759  1  0.12429271  0.95462191  0.24899586  1.0
  P  P3760  1  0.23540382  0.07962191  0.24899586  1.0
  P  P3761  1  0.23540382  0.20462191  0.24899586  1.0
  P  P3762  1  0.23540382  0.32962191  0.24899586  1.0
  P  P3763  1  0.23540382  0.45462191  0.24899586  1.0
  P  P3764  1  0.23540382  0.57962191  0.24899586  1.0
  P  P3765  1  0.23540382  0.70462191  0.24899586  1.0
  P  P3766  1  0.23540382  0.82962191  0.24899586  1.0
  P  P3767  1  0.23540382  0.95462191  0.24899586  1.0
  P  P3768  1  0.34651493  0.07962191  0.24899586  1.0
  P  P3769  1  0.34651493  0.20462191  0.24899586  1.0
  P  P3770  1  0.34651493  0.32962191  0.24899586  1.0
  P  P3771  1  0.34651493  0.45462191  0.24899586  1.0
  P  P3772  1  0.34651493  0.57962191  0.24899586  1.0
  P  P3773  1  0.34651493  0.70462191  0.24899586  1.0
  P  P3774  1  0.34651493  0.82962191  0.24899586  1.0
  P  P3775  1  0.34651493  0.95462191  0.24899586  1.0
  P  P3776  1  0.45762604  0.07962191  0.24899586  1.0
  P  P3777  1  0.45762604  0.20462191  0.24899586  1.0
  P  P3778  1  0.45762604  0.32962191  0.24899586  1.0
  P  P3779  1  0.45762604  0.45462191  0.24899586  1.0
  P  P3780  1  0.45762604  0.57962191  0.24899586  1.0
  P  P3781  1  0.45762604  0.70462191  0.24899586  1.0
  P  P3782  1  0.45762604  0.82962191  0.24899586  1.0
  P  P3783  1  0.45762604  0.95462191  0.24899586  1.0
  P  P3784  1  0.56873715  0.07962191  0.24899586  1.0
  P  P3785  1  0.56873715  0.20462191  0.24899586  1.0
  P  P3786  1  0.56873715  0.32962191  0.24899586  1.0
  P  P3787  1  0.56873715  0.45462191  0.24899586  1.0
  P  P3788  1  0.56873715  0.57962191  0.24899586  1.0
  P  P3789  1  0.56873715  0.70462191  0.24899586  1.0
  P  P3790  1  0.56873715  0.82962191  0.24899586  1.0
  P  P3791  1  0.56873715  0.95462191  0.24899586  1.0
  P  P3792  1  0.67984826  0.07962191  0.24899586  1.0
  P  P3793  1  0.67984826  0.20462191  0.24899586  1.0
  P  P3794  1  0.67984826  0.32962191  0.24899586  1.0
  P  P3795  1  0.67984826  0.45462191  0.24899586  1.0
  P  P3796  1  0.67984826  0.57962191  0.24899586  1.0
  P  P3797  1  0.67984826  0.70462191  0.24899586  1.0
  P  P3798  1  0.67984826  0.82962191  0.24899586  1.0
  P  P3799  1  0.67984826  0.95462191  0.24899586  1.0
  P  P3800  1  0.79095937  0.07962191  0.24899586  1.0
  P  P3801  1  0.79095937  0.20462191  0.24899586  1.0
  P  P3802  1  0.79095937  0.32962191  0.24899586  1.0
  P  P3803  1  0.79095937  0.45462191  0.24899586  1.0
  P  P3804  1  0.79095937  0.57962191  0.24899586  1.0
  P  P3805  1  0.79095937  0.70462191  0.24899586  1.0
  P  P3806  1  0.79095937  0.82962191  0.24899586  1.0
  P  P3807  1  0.79095937  0.95462191  0.24899586  1.0
  P  P3808  1  0.90207048  0.07962191  0.24899586  1.0
  P  P3809  1  0.90207048  0.20462191  0.24899586  1.0
  P  P3810  1  0.90207048  0.32962191  0.24899586  1.0
  P  P3811  1  0.90207048  0.45462191  0.24899586  1.0
  P  P3812  1  0.90207048  0.57962191  0.24899586  1.0
  P  P3813  1  0.90207048  0.70462191  0.24899586  1.0
  P  P3814  1  0.90207048  0.82962191  0.24899586  1.0
  P  P3815  1  0.90207048  0.95462191  0.24899586  1.0
  P  P3816  1  0.06609165  0.07962191  0.34423396  1.0
  P  P3817  1  0.06609165  0.20462191  0.34423396  1.0
  P  P3818  1  0.06609165  0.32962191  0.34423396  1.0
  P  P3819  1  0.06609165  0.45462191  0.34423396  1.0
  P  P3820  1  0.06609165  0.57962191  0.34423396  1.0
  P  P3821  1  0.06609165  0.70462191  0.34423396  1.0
  P  P3822  1  0.06609165  0.82962191  0.34423396  1.0
  P  P3823  1  0.06609165  0.95462191  0.34423396  1.0
  P  P3824  1  0.17720276  0.07962191  0.34423396  1.0
  P  P3825  1  0.17720276  0.20462191  0.34423396  1.0
  P  P3826  1  0.17720276  0.32962191  0.34423396  1.0
  P  P3827  1  0.17720276  0.45462191  0.34423396  1.0
  P  P3828  1  0.17720276  0.57962191  0.34423396  1.0
  P  P3829  1  0.17720276  0.70462191  0.34423396  1.0
  P  P3830  1  0.17720276  0.82962191  0.34423396  1.0
  P  P3831  1  0.17720276  0.95462191  0.34423396  1.0
  P  P3832  1  0.28831387  0.07962191  0.34423396  1.0
  P  P3833  1  0.28831387  0.20462191  0.34423396  1.0
  P  P3834  1  0.28831387  0.32962191  0.34423396  1.0
  P  P3835  1  0.28831387  0.45462191  0.34423396  1.0
  P  P3836  1  0.28831387  0.57962191  0.34423396  1.0
  P  P3837  1  0.28831387  0.70462191  0.34423396  1.0
  P  P3838  1  0.28831387  0.82962191  0.34423396  1.0
  P  P3839  1  0.28831387  0.95462191  0.34423396  1.0
  P  P3840  1  0.39942498  0.07962191  0.34423396  1.0
  P  P3841  1  0.39942498  0.20462191  0.34423396  1.0
  P  P3842  1  0.39942498  0.32962191  0.34423396  1.0
  P  P3843  1  0.39942498  0.45462191  0.34423396  1.0
  P  P3844  1  0.39942498  0.57962191  0.34423396  1.0
  P  P3845  1  0.39942498  0.70462191  0.34423396  1.0
  P  P3846  1  0.39942498  0.82962191  0.34423396  1.0
  P  P3847  1  0.39942498  0.95462191  0.34423396  1.0
  P  P3848  1  0.51053609  0.07962191  0.34423396  1.0
  P  P3849  1  0.51053609  0.20462191  0.34423396  1.0
  P  P3850  1  0.51053609  0.32962191  0.34423396  1.0
  P  P3851  1  0.51053609  0.45462191  0.34423396  1.0
  P  P3852  1  0.51053609  0.57962191  0.34423396  1.0
  P  P3853  1  0.51053609  0.70462191  0.34423396  1.0
  P  P3854  1  0.51053609  0.82962191  0.34423396  1.0
  P  P3855  1  0.51053609  0.95462191  0.34423396  1.0
  P  P3856  1  0.62164720  0.07962191  0.34423396  1.0
  P  P3857  1  0.62164720  0.20462191  0.34423396  1.0
  P  P3858  1  0.62164720  0.32962191  0.34423396  1.0
  P  P3859  1  0.62164720  0.45462191  0.34423396  1.0
  P  P3860  1  0.62164720  0.57962191  0.34423396  1.0
  P  P3861  1  0.62164720  0.70462191  0.34423396  1.0
  P  P3862  1  0.62164720  0.82962191  0.34423396  1.0
  P  P3863  1  0.62164720  0.95462191  0.34423396  1.0
  P  P3864  1  0.73275831  0.07962191  0.34423396  1.0
  P  P3865  1  0.73275831  0.20462191  0.34423396  1.0
  P  P3866  1  0.73275831  0.32962191  0.34423396  1.0
  P  P3867  1  0.73275831  0.45462191  0.34423396  1.0
  P  P3868  1  0.73275831  0.57962191  0.34423396  1.0
  P  P3869  1  0.73275831  0.70462191  0.34423396  1.0
  P  P3870  1  0.73275831  0.82962191  0.34423396  1.0
  P  P3871  1  0.73275831  0.95462191  0.34423396  1.0
  P  P3872  1  0.84386942  0.07962191  0.34423396  1.0
  P  P3873  1  0.84386942  0.20462191  0.34423396  1.0
  P  P3874  1  0.84386942  0.32962191  0.34423396  1.0
  P  P3875  1  0.84386942  0.45462191  0.34423396  1.0
  P  P3876  1  0.84386942  0.57962191  0.34423396  1.0
  P  P3877  1  0.84386942  0.70462191  0.34423396  1.0
  P  P3878  1  0.84386942  0.82962191  0.34423396  1.0
  P  P3879  1  0.84386942  0.95462191  0.34423396  1.0
  P  P3880  1  0.95498054  0.07962191  0.34423396  1.0
  P  P3881  1  0.95498054  0.20462191  0.34423396  1.0
  P  P3882  1  0.95498054  0.32962191  0.34423396  1.0
  P  P3883  1  0.95498054  0.45462191  0.34423396  1.0
  P  P3884  1  0.95498054  0.57962191  0.34423396  1.0
  P  P3885  1  0.95498054  0.70462191  0.34423396  1.0
  P  P3886  1  0.95498054  0.82962191  0.34423396  1.0
  P  P3887  1  0.95498054  0.95462191  0.34423396  1.0
  P  P3888  1  0.03963662  0.07962191  0.29661491  1.0
  P  P3889  1  0.03963662  0.20462191  0.29661491  1.0
  P  P3890  1  0.03963662  0.32962191  0.29661491  1.0
  P  P3891  1  0.03963662  0.45462191  0.29661491  1.0
  P  P3892  1  0.03963662  0.57962191  0.29661491  1.0
  P  P3893  1  0.03963662  0.70462191  0.29661491  1.0
  P  P3894  1  0.03963662  0.82962191  0.29661491  1.0
  P  P3895  1  0.03963662  0.95462191  0.29661491  1.0
  P  P3896  1  0.15074773  0.07962191  0.29661491  1.0
  P  P3897  1  0.15074773  0.20462191  0.29661491  1.0
  P  P3898  1  0.15074773  0.32962191  0.29661491  1.0
  P  P3899  1  0.15074773  0.45462191  0.29661491  1.0
  P  P3900  1  0.15074773  0.57962191  0.29661491  1.0
  P  P3901  1  0.15074773  0.70462191  0.29661491  1.0
  P  P3902  1  0.15074773  0.82962191  0.29661491  1.0
  P  P3903  1  0.15074773  0.95462191  0.29661491  1.0
  P  P3904  1  0.26185884  0.07962191  0.29661491  1.0
  P  P3905  1  0.26185884  0.20462191  0.29661491  1.0
  P  P3906  1  0.26185884  0.32962191  0.29661491  1.0
  P  P3907  1  0.26185884  0.45462191  0.29661491  1.0
  P  P3908  1  0.26185884  0.57962191  0.29661491  1.0
  P  P3909  1  0.26185884  0.70462191  0.29661491  1.0
  P  P3910  1  0.26185884  0.82962191  0.29661491  1.0
  P  P3911  1  0.26185884  0.95462191  0.29661491  1.0
  P  P3912  1  0.37296995  0.07962191  0.29661491  1.0
  P  P3913  1  0.37296995  0.20462191  0.29661491  1.0
  P  P3914  1  0.37296995  0.32962191  0.29661491  1.0
  P  P3915  1  0.37296995  0.45462191  0.29661491  1.0
  P  P3916  1  0.37296995  0.57962191  0.29661491  1.0
  P  P3917  1  0.37296995  0.70462191  0.29661491  1.0
  P  P3918  1  0.37296995  0.82962191  0.29661491  1.0
  P  P3919  1  0.37296995  0.95462191  0.29661491  1.0
  P  P3920  1  0.48408106  0.07962191  0.29661491  1.0
  P  P3921  1  0.48408106  0.20462191  0.29661491  1.0
  P  P3922  1  0.48408106  0.32962191  0.29661491  1.0
  P  P3923  1  0.48408106  0.45462191  0.29661491  1.0
  P  P3924  1  0.48408106  0.57962191  0.29661491  1.0
  P  P3925  1  0.48408106  0.70462191  0.29661491  1.0
  P  P3926  1  0.48408106  0.82962191  0.29661491  1.0
  P  P3927  1  0.48408106  0.95462191  0.29661491  1.0
  P  P3928  1  0.59519218  0.07962191  0.29661491  1.0
  P  P3929  1  0.59519218  0.20462191  0.29661491  1.0
  P  P3930  1  0.59519218  0.32962191  0.29661491  1.0
  P  P3931  1  0.59519218  0.45462191  0.29661491  1.0
  P  P3932  1  0.59519218  0.57962191  0.29661491  1.0
  P  P3933  1  0.59519218  0.70462191  0.29661491  1.0
  P  P3934  1  0.59519218  0.82962191  0.29661491  1.0
  P  P3935  1  0.59519218  0.95462191  0.29661491  1.0
  P  P3936  1  0.70630329  0.07962191  0.29661491  1.0
  P  P3937  1  0.70630329  0.20462191  0.29661491  1.0
  P  P3938  1  0.70630329  0.32962191  0.29661491  1.0
  P  P3939  1  0.70630329  0.45462191  0.29661491  1.0
  P  P3940  1  0.70630329  0.57962191  0.29661491  1.0
  P  P3941  1  0.70630329  0.70462191  0.29661491  1.0
  P  P3942  1  0.70630329  0.82962191  0.29661491  1.0
  P  P3943  1  0.70630329  0.95462191  0.29661491  1.0
  P  P3944  1  0.81741440  0.07962191  0.29661491  1.0
  P  P3945  1  0.81741440  0.20462191  0.29661491  1.0
  P  P3946  1  0.81741440  0.32962191  0.29661491  1.0
  P  P3947  1  0.81741440  0.45462191  0.29661491  1.0
  P  P3948  1  0.81741440  0.57962191  0.29661491  1.0
  P  P3949  1  0.81741440  0.70462191  0.29661491  1.0
  P  P3950  1  0.81741440  0.82962191  0.29661491  1.0
  P  P3951  1  0.81741440  0.95462191  0.29661491  1.0
  P  P3952  1  0.92852551  0.07962191  0.29661491  1.0
  P  P3953  1  0.92852551  0.20462191  0.29661491  1.0
  P  P3954  1  0.92852551  0.32962191  0.29661491  1.0
  P  P3955  1  0.92852551  0.45462191  0.29661491  1.0
  P  P3956  1  0.92852551  0.57962191  0.29661491  1.0
  P  P3957  1  0.92852551  0.70462191  0.29661491  1.0
  P  P3958  1  0.92852551  0.82962191  0.29661491  1.0
  P  P3959  1  0.92852551  0.95462191  0.29661491  1.0
  P  P3960  1  0.04128918  0.04537809  0.26443534  1.0
  P  P3961  1  0.04128918  0.17037809  0.26443534  1.0
  P  P3962  1  0.04128918  0.29537809  0.26443534  1.0
  P  P3963  1  0.04128918  0.42037809  0.26443534  1.0
  P  P3964  1  0.04128918  0.54537809  0.26443534  1.0
  P  P3965  1  0.04128918  0.67037809  0.26443534  1.0
  P  P3966  1  0.04128918  0.79537809  0.26443534  1.0
  P  P3967  1  0.04128918  0.92037809  0.26443534  1.0
  P  P3968  1  0.15240029  0.04537809  0.26443534  1.0
  P  P3969  1  0.15240029  0.17037809  0.26443534  1.0
  P  P3970  1  0.15240029  0.29537809  0.26443534  1.0
  P  P3971  1  0.15240029  0.42037809  0.26443534  1.0
  P  P3972  1  0.15240029  0.54537809  0.26443534  1.0
  P  P3973  1  0.15240029  0.67037809  0.26443534  1.0
  P  P3974  1  0.15240029  0.79537809  0.26443534  1.0
  P  P3975  1  0.15240029  0.92037809  0.26443534  1.0
  P  P3976  1  0.26351140  0.04537809  0.26443534  1.0
  P  P3977  1  0.26351140  0.17037809  0.26443534  1.0
  P  P3978  1  0.26351140  0.29537809  0.26443534  1.0
  P  P3979  1  0.26351140  0.42037809  0.26443534  1.0
  P  P3980  1  0.26351140  0.54537809  0.26443534  1.0
  P  P3981  1  0.26351140  0.67037809  0.26443534  1.0
  P  P3982  1  0.26351140  0.79537809  0.26443534  1.0
  P  P3983  1  0.26351140  0.92037809  0.26443534  1.0
  P  P3984  1  0.37462252  0.04537809  0.26443534  1.0
  P  P3985  1  0.37462252  0.17037809  0.26443534  1.0
  P  P3986  1  0.37462252  0.29537809  0.26443534  1.0
  P  P3987  1  0.37462252  0.42037809  0.26443534  1.0
  P  P3988  1  0.37462252  0.54537809  0.26443534  1.0
  P  P3989  1  0.37462252  0.67037809  0.26443534  1.0
  P  P3990  1  0.37462252  0.79537809  0.26443534  1.0
  P  P3991  1  0.37462252  0.92037809  0.26443534  1.0
  P  P3992  1  0.48573363  0.04537809  0.26443534  1.0
  P  P3993  1  0.48573363  0.17037809  0.26443534  1.0
  P  P3994  1  0.48573363  0.29537809  0.26443534  1.0
  P  P3995  1  0.48573363  0.42037809  0.26443534  1.0
  P  P3996  1  0.48573363  0.54537809  0.26443534  1.0
  P  P3997  1  0.48573363  0.67037809  0.26443534  1.0
  P  P3998  1  0.48573363  0.79537809  0.26443534  1.0
  P  P3999  1  0.48573363  0.92037809  0.26443534  1.0
  P  P4000  1  0.59684474  0.04537809  0.26443534  1.0
  P  P4001  1  0.59684474  0.17037809  0.26443534  1.0
  P  P4002  1  0.59684474  0.29537809  0.26443534  1.0
  P  P4003  1  0.59684474  0.42037809  0.26443534  1.0
  P  P4004  1  0.59684474  0.54537809  0.26443534  1.0
  P  P4005  1  0.59684474  0.67037809  0.26443534  1.0
  P  P4006  1  0.59684474  0.79537809  0.26443534  1.0
  P  P4007  1  0.59684474  0.92037809  0.26443534  1.0
  P  P4008  1  0.70795585  0.04537809  0.26443534  1.0
  P  P4009  1  0.70795585  0.17037809  0.26443534  1.0
  P  P4010  1  0.70795585  0.29537809  0.26443534  1.0
  P  P4011  1  0.70795585  0.42037809  0.26443534  1.0
  P  P4012  1  0.70795585  0.54537809  0.26443534  1.0
  P  P4013  1  0.70795585  0.67037809  0.26443534  1.0
  P  P4014  1  0.70795585  0.79537809  0.26443534  1.0
  P  P4015  1  0.70795585  0.92037809  0.26443534  1.0
  P  P4016  1  0.81906696  0.04537809  0.26443534  1.0
  P  P4017  1  0.81906696  0.17037809  0.26443534  1.0
  P  P4018  1  0.81906696  0.29537809  0.26443534  1.0
  P  P4019  1  0.81906696  0.42037809  0.26443534  1.0
  P  P4020  1  0.81906696  0.54537809  0.26443534  1.0
  P  P4021  1  0.81906696  0.67037809  0.26443534  1.0
  P  P4022  1  0.81906696  0.79537809  0.26443534  1.0
  P  P4023  1  0.81906696  0.92037809  0.26443534  1.0
  P  P4024  1  0.93017807  0.04537809  0.26443534  1.0
  P  P4025  1  0.93017807  0.17037809  0.26443534  1.0
  P  P4026  1  0.93017807  0.29537809  0.26443534  1.0
  P  P4027  1  0.93017807  0.42037809  0.26443534  1.0
  P  P4028  1  0.93017807  0.54537809  0.26443534  1.0
  P  P4029  1  0.93017807  0.67037809  0.26443534  1.0
  P  P4030  1  0.93017807  0.79537809  0.26443534  1.0
  P  P4031  1  0.93017807  0.92037809  0.26443534  1.0
  P  P4032  1  0.01483416  0.04537809  0.21681629  1.0
  P  P4033  1  0.01483416  0.17037809  0.21681629  1.0
  P  P4034  1  0.01483416  0.29537809  0.21681629  1.0
  P  P4035  1  0.01483416  0.42037809  0.21681629  1.0
  P  P4036  1  0.01483416  0.54537809  0.21681629  1.0
  P  P4037  1  0.01483416  0.67037809  0.21681629  1.0
  P  P4038  1  0.01483416  0.79537809  0.21681629  1.0
  P  P4039  1  0.01483416  0.92037809  0.21681629  1.0
  P  P4040  1  0.12594527  0.04537809  0.21681629  1.0
  P  P4041  1  0.12594527  0.17037809  0.21681629  1.0
  P  P4042  1  0.12594527  0.29537809  0.21681629  1.0
  P  P4043  1  0.12594527  0.42037809  0.21681629  1.0
  P  P4044  1  0.12594527  0.54537809  0.21681629  1.0
  P  P4045  1  0.12594527  0.67037809  0.21681629  1.0
  P  P4046  1  0.12594527  0.79537809  0.21681629  1.0
  P  P4047  1  0.12594527  0.92037809  0.21681629  1.0
  P  P4048  1  0.23705638  0.04537809  0.21681629  1.0
  P  P4049  1  0.23705638  0.17037809  0.21681629  1.0
  P  P4050  1  0.23705638  0.29537809  0.21681629  1.0
  P  P4051  1  0.23705638  0.42037809  0.21681629  1.0
  P  P4052  1  0.23705638  0.54537809  0.21681629  1.0
  P  P4053  1  0.23705638  0.67037809  0.21681629  1.0
  P  P4054  1  0.23705638  0.79537809  0.21681629  1.0
  P  P4055  1  0.23705638  0.92037809  0.21681629  1.0
  P  P4056  1  0.34816749  0.04537809  0.21681629  1.0
  P  P4057  1  0.34816749  0.17037809  0.21681629  1.0
  P  P4058  1  0.34816749  0.29537809  0.21681629  1.0
  P  P4059  1  0.34816749  0.42037809  0.21681629  1.0
  P  P4060  1  0.34816749  0.54537809  0.21681629  1.0
  P  P4061  1  0.34816749  0.67037809  0.21681629  1.0
  P  P4062  1  0.34816749  0.79537809  0.21681629  1.0
  P  P4063  1  0.34816749  0.92037809  0.21681629  1.0
  P  P4064  1  0.45927860  0.04537809  0.21681629  1.0
  P  P4065  1  0.45927860  0.17037809  0.21681629  1.0
  P  P4066  1  0.45927860  0.29537809  0.21681629  1.0
  P  P4067  1  0.45927860  0.42037809  0.21681629  1.0
  P  P4068  1  0.45927860  0.54537809  0.21681629  1.0
  P  P4069  1  0.45927860  0.67037809  0.21681629  1.0
  P  P4070  1  0.45927860  0.79537809  0.21681629  1.0
  P  P4071  1  0.45927860  0.92037809  0.21681629  1.0
  P  P4072  1  0.57038971  0.04537809  0.21681629  1.0
  P  P4073  1  0.57038971  0.17037809  0.21681629  1.0
  P  P4074  1  0.57038971  0.29537809  0.21681629  1.0
  P  P4075  1  0.57038971  0.42037809  0.21681629  1.0
  P  P4076  1  0.57038971  0.54537809  0.21681629  1.0
  P  P4077  1  0.57038971  0.67037809  0.21681629  1.0
  P  P4078  1  0.57038971  0.79537809  0.21681629  1.0
  P  P4079  1  0.57038971  0.92037809  0.21681629  1.0
  P  P4080  1  0.68150082  0.04537809  0.21681629  1.0
  P  P4081  1  0.68150082  0.17037809  0.21681629  1.0
  P  P4082  1  0.68150082  0.29537809  0.21681629  1.0
  P  P4083  1  0.68150082  0.42037809  0.21681629  1.0
  P  P4084  1  0.68150082  0.54537809  0.21681629  1.0
  P  P4085  1  0.68150082  0.67037809  0.21681629  1.0
  P  P4086  1  0.68150082  0.79537809  0.21681629  1.0
  P  P4087  1  0.68150082  0.92037809  0.21681629  1.0
  P  P4088  1  0.79261193  0.04537809  0.21681629  1.0
  P  P4089  1  0.79261193  0.17037809  0.21681629  1.0
  P  P4090  1  0.79261193  0.29537809  0.21681629  1.0
  P  P4091  1  0.79261193  0.42037809  0.21681629  1.0
  P  P4092  1  0.79261193  0.54537809  0.21681629  1.0
  P  P4093  1  0.79261193  0.67037809  0.21681629  1.0
  P  P4094  1  0.79261193  0.79537809  0.21681629  1.0
  P  P4095  1  0.79261193  0.92037809  0.21681629  1.0
  P  P4096  1  0.90372304  0.04537809  0.21681629  1.0
  P  P4097  1  0.90372304  0.17037809  0.21681629  1.0
  P  P4098  1  0.90372304  0.29537809  0.21681629  1.0
  P  P4099  1  0.90372304  0.42037809  0.21681629  1.0
  P  P4100  1  0.90372304  0.54537809  0.21681629  1.0
  P  P4101  1  0.90372304  0.67037809  0.21681629  1.0
  P  P4102  1  0.90372304  0.79537809  0.21681629  1.0
  P  P4103  1  0.90372304  0.92037809  0.21681629  1.0
  P  P4104  1  0.06774421  0.04537809  0.31205439  1.0
  P  P4105  1  0.06774421  0.17037809  0.31205439  1.0
  P  P4106  1  0.06774421  0.29537809  0.31205439  1.0
  P  P4107  1  0.06774421  0.42037809  0.31205439  1.0
  P  P4108  1  0.06774421  0.54537809  0.31205439  1.0
  P  P4109  1  0.06774421  0.67037809  0.31205439  1.0
  P  P4110  1  0.06774421  0.79537809  0.31205439  1.0
  P  P4111  1  0.06774421  0.92037809  0.31205439  1.0
  P  P4112  1  0.17885532  0.04537809  0.31205439  1.0
  P  P4113  1  0.17885532  0.17037809  0.31205439  1.0
  P  P4114  1  0.17885532  0.29537809  0.31205439  1.0
  P  P4115  1  0.17885532  0.42037809  0.31205439  1.0
  P  P4116  1  0.17885532  0.54537809  0.31205439  1.0
  P  P4117  1  0.17885532  0.67037809  0.31205439  1.0
  P  P4118  1  0.17885532  0.79537809  0.31205439  1.0
  P  P4119  1  0.17885532  0.92037809  0.31205439  1.0
  P  P4120  1  0.28996643  0.04537809  0.31205439  1.0
  P  P4121  1  0.28996643  0.17037809  0.31205439  1.0
  P  P4122  1  0.28996643  0.29537809  0.31205439  1.0
  P  P4123  1  0.28996643  0.42037809  0.31205439  1.0
  P  P4124  1  0.28996643  0.54537809  0.31205439  1.0
  P  P4125  1  0.28996643  0.67037809  0.31205439  1.0
  P  P4126  1  0.28996643  0.79537809  0.31205439  1.0
  P  P4127  1  0.28996643  0.92037809  0.31205439  1.0
  P  P4128  1  0.40107754  0.04537809  0.31205439  1.0
  P  P4129  1  0.40107754  0.17037809  0.31205439  1.0
  P  P4130  1  0.40107754  0.29537809  0.31205439  1.0
  P  P4131  1  0.40107754  0.42037809  0.31205439  1.0
  P  P4132  1  0.40107754  0.54537809  0.31205439  1.0
  P  P4133  1  0.40107754  0.67037809  0.31205439  1.0
  P  P4134  1  0.40107754  0.79537809  0.31205439  1.0
  P  P4135  1  0.40107754  0.92037809  0.31205439  1.0
  P  P4136  1  0.51218865  0.04537809  0.31205439  1.0
  P  P4137  1  0.51218865  0.17037809  0.31205439  1.0
  P  P4138  1  0.51218865  0.29537809  0.31205439  1.0
  P  P4139  1  0.51218865  0.42037809  0.31205439  1.0
  P  P4140  1  0.51218865  0.54537809  0.31205439  1.0
  P  P4141  1  0.51218865  0.67037809  0.31205439  1.0
  P  P4142  1  0.51218865  0.79537809  0.31205439  1.0
  P  P4143  1  0.51218865  0.92037809  0.31205439  1.0
  P  P4144  1  0.62329976  0.04537809  0.31205439  1.0
  P  P4145  1  0.62329976  0.17037809  0.31205439  1.0
  P  P4146  1  0.62329976  0.29537809  0.31205439  1.0
  P  P4147  1  0.62329976  0.42037809  0.31205439  1.0
  P  P4148  1  0.62329976  0.54537809  0.31205439  1.0
  P  P4149  1  0.62329976  0.67037809  0.31205439  1.0
  P  P4150  1  0.62329976  0.79537809  0.31205439  1.0
  P  P4151  1  0.62329976  0.92037809  0.31205439  1.0
  P  P4152  1  0.73441087  0.04537809  0.31205439  1.0
  P  P4153  1  0.73441087  0.17037809  0.31205439  1.0
  P  P4154  1  0.73441087  0.29537809  0.31205439  1.0
  P  P4155  1  0.73441087  0.42037809  0.31205439  1.0
  P  P4156  1  0.73441087  0.54537809  0.31205439  1.0
  P  P4157  1  0.73441087  0.67037809  0.31205439  1.0
  P  P4158  1  0.73441087  0.79537809  0.31205439  1.0
  P  P4159  1  0.73441087  0.92037809  0.31205439  1.0
  P  P4160  1  0.84552199  0.04537809  0.31205439  1.0
  P  P4161  1  0.84552199  0.17037809  0.31205439  1.0
  P  P4162  1  0.84552199  0.29537809  0.31205439  1.0
  P  P4163  1  0.84552199  0.42037809  0.31205439  1.0
  P  P4164  1  0.84552199  0.54537809  0.31205439  1.0
  P  P4165  1  0.84552199  0.67037809  0.31205439  1.0
  P  P4166  1  0.84552199  0.79537809  0.31205439  1.0
  P  P4167  1  0.84552199  0.92037809  0.31205439  1.0
  P  P4168  1  0.95663310  0.04537809  0.31205439  1.0
  P  P4169  1  0.95663310  0.17037809  0.31205439  1.0
  P  P4170  1  0.95663310  0.29537809  0.31205439  1.0
  P  P4171  1  0.95663310  0.42037809  0.31205439  1.0
  P  P4172  1  0.95663310  0.54537809  0.31205439  1.0
  P  P4173  1  0.95663310  0.67037809  0.31205439  1.0
  P  P4174  1  0.95663310  0.79537809  0.31205439  1.0
  P  P4175  1  0.95663310  0.92037809  0.31205439  1.0
  P  P4176  1  0.04403115  0.12004423  0.26289299  1.0
  P  P4177  1  0.04403115  0.24504423  0.26289299  1.0
  P  P4178  1  0.04403115  0.37004423  0.26289299  1.0
  P  P4179  1  0.04403115  0.49504423  0.26289299  1.0
  P  P4180  1  0.04403115  0.62004423  0.26289299  1.0
  P  P4181  1  0.04403115  0.74504423  0.26289299  1.0
  P  P4182  1  0.04403115  0.87004423  0.26289299  1.0
  P  P4183  1  0.04403115  0.99504423  0.26289299  1.0
  P  P4184  1  0.15514226  0.12004423  0.26289299  1.0
  P  P4185  1  0.15514226  0.24504423  0.26289299  1.0
  P  P4186  1  0.15514226  0.37004423  0.26289299  1.0
  P  P4187  1  0.15514226  0.49504423  0.26289299  1.0
  P  P4188  1  0.15514226  0.62004423  0.26289299  1.0
  P  P4189  1  0.15514226  0.74504423  0.26289299  1.0
  P  P4190  1  0.15514226  0.87004423  0.26289299  1.0
  P  P4191  1  0.15514226  0.99504423  0.26289299  1.0
  P  P4192  1  0.26625337  0.12004423  0.26289299  1.0
  P  P4193  1  0.26625337  0.24504423  0.26289299  1.0
  P  P4194  1  0.26625337  0.37004423  0.26289299  1.0
  P  P4195  1  0.26625337  0.49504423  0.26289299  1.0
  P  P4196  1  0.26625337  0.62004423  0.26289299  1.0
  P  P4197  1  0.26625337  0.74504423  0.26289299  1.0
  P  P4198  1  0.26625337  0.87004423  0.26289299  1.0
  P  P4199  1  0.26625337  0.99504423  0.26289299  1.0
  P  P4200  1  0.37736448  0.12004423  0.26289299  1.0
  P  P4201  1  0.37736448  0.24504423  0.26289299  1.0
  P  P4202  1  0.37736448  0.37004423  0.26289299  1.0
  P  P4203  1  0.37736448  0.49504423  0.26289299  1.0
  P  P4204  1  0.37736448  0.62004423  0.26289299  1.0
  P  P4205  1  0.37736448  0.74504423  0.26289299  1.0
  P  P4206  1  0.37736448  0.87004423  0.26289299  1.0
  P  P4207  1  0.37736448  0.99504423  0.26289299  1.0
  P  P4208  1  0.48847559  0.12004423  0.26289299  1.0
  P  P4209  1  0.48847559  0.24504423  0.26289299  1.0
  P  P4210  1  0.48847559  0.37004423  0.26289299  1.0
  P  P4211  1  0.48847559  0.49504423  0.26289299  1.0
  P  P4212  1  0.48847559  0.62004423  0.26289299  1.0
  P  P4213  1  0.48847559  0.74504423  0.26289299  1.0
  P  P4214  1  0.48847559  0.87004423  0.26289299  1.0
  P  P4215  1  0.48847559  0.99504423  0.26289299  1.0
  P  P4216  1  0.59958670  0.12004423  0.26289299  1.0
  P  P4217  1  0.59958670  0.24504423  0.26289299  1.0
  P  P4218  1  0.59958670  0.37004423  0.26289299  1.0
  P  P4219  1  0.59958670  0.49504423  0.26289299  1.0
  P  P4220  1  0.59958670  0.62004423  0.26289299  1.0
  P  P4221  1  0.59958670  0.74504423  0.26289299  1.0
  P  P4222  1  0.59958670  0.87004423  0.26289299  1.0
  P  P4223  1  0.59958670  0.99504423  0.26289299  1.0
  P  P4224  1  0.71069781  0.12004423  0.26289299  1.0
  P  P4225  1  0.71069781  0.24504423  0.26289299  1.0
  P  P4226  1  0.71069781  0.37004423  0.26289299  1.0
  P  P4227  1  0.71069781  0.49504423  0.26289299  1.0
  P  P4228  1  0.71069781  0.62004423  0.26289299  1.0
  P  P4229  1  0.71069781  0.74504423  0.26289299  1.0
  P  P4230  1  0.71069781  0.87004423  0.26289299  1.0
  P  P4231  1  0.71069781  0.99504423  0.26289299  1.0
  P  P4232  1  0.82180892  0.12004423  0.26289299  1.0
  P  P4233  1  0.82180892  0.24504423  0.26289299  1.0
  P  P4234  1  0.82180892  0.37004423  0.26289299  1.0
  P  P4235  1  0.82180892  0.49504423  0.26289299  1.0
  P  P4236  1  0.82180892  0.62004423  0.26289299  1.0
  P  P4237  1  0.82180892  0.74504423  0.26289299  1.0
  P  P4238  1  0.82180892  0.87004423  0.26289299  1.0
  P  P4239  1  0.82180892  0.99504423  0.26289299  1.0
  P  P4240  1  0.93292003  0.12004423  0.26289299  1.0
  P  P4241  1  0.93292003  0.24504423  0.26289299  1.0
  P  P4242  1  0.93292003  0.37004423  0.26289299  1.0
  P  P4243  1  0.93292003  0.49504423  0.26289299  1.0
  P  P4244  1  0.93292003  0.62004423  0.26289299  1.0
  P  P4245  1  0.93292003  0.74504423  0.26289299  1.0
  P  P4246  1  0.93292003  0.87004423  0.26289299  1.0
  P  P4247  1  0.93292003  0.99504423  0.26289299  1.0
  P  P4248  1  0.01757612  0.12004423  0.21527394  1.0
  P  P4249  1  0.01757612  0.24504423  0.21527394  1.0
  P  P4250  1  0.01757612  0.37004423  0.21527394  1.0
  P  P4251  1  0.01757612  0.49504423  0.21527394  1.0
  P  P4252  1  0.01757612  0.62004423  0.21527394  1.0
  P  P4253  1  0.01757612  0.74504423  0.21527394  1.0
  P  P4254  1  0.01757612  0.87004423  0.21527394  1.0
  P  P4255  1  0.01757612  0.99504423  0.21527394  1.0
  P  P4256  1  0.12868723  0.12004423  0.21527394  1.0
  P  P4257  1  0.12868723  0.24504423  0.21527394  1.0
  P  P4258  1  0.12868723  0.37004423  0.21527394  1.0
  P  P4259  1  0.12868723  0.49504423  0.21527394  1.0
  P  P4260  1  0.12868723  0.62004423  0.21527394  1.0
  P  P4261  1  0.12868723  0.74504423  0.21527394  1.0
  P  P4262  1  0.12868723  0.87004423  0.21527394  1.0
  P  P4263  1  0.12868723  0.99504423  0.21527394  1.0
  P  P4264  1  0.23979834  0.12004423  0.21527394  1.0
  P  P4265  1  0.23979834  0.24504423  0.21527394  1.0
  P  P4266  1  0.23979834  0.37004423  0.21527394  1.0
  P  P4267  1  0.23979834  0.49504423  0.21527394  1.0
  P  P4268  1  0.23979834  0.62004423  0.21527394  1.0
  P  P4269  1  0.23979834  0.74504423  0.21527394  1.0
  P  P4270  1  0.23979834  0.87004423  0.21527394  1.0
  P  P4271  1  0.23979834  0.99504423  0.21527394  1.0
  P  P4272  1  0.35090945  0.12004423  0.21527394  1.0
  P  P4273  1  0.35090945  0.24504423  0.21527394  1.0
  P  P4274  1  0.35090945  0.37004423  0.21527394  1.0
  P  P4275  1  0.35090945  0.49504423  0.21527394  1.0
  P  P4276  1  0.35090945  0.62004423  0.21527394  1.0
  P  P4277  1  0.35090945  0.74504423  0.21527394  1.0
  P  P4278  1  0.35090945  0.87004423  0.21527394  1.0
  P  P4279  1  0.35090945  0.99504423  0.21527394  1.0
  P  P4280  1  0.46202056  0.12004423  0.21527394  1.0
  P  P4281  1  0.46202056  0.24504423  0.21527394  1.0
  P  P4282  1  0.46202056  0.37004423  0.21527394  1.0
  P  P4283  1  0.46202056  0.49504423  0.21527394  1.0
  P  P4284  1  0.46202056  0.62004423  0.21527394  1.0
  P  P4285  1  0.46202056  0.74504423  0.21527394  1.0
  P  P4286  1  0.46202056  0.87004423  0.21527394  1.0
  P  P4287  1  0.46202056  0.99504423  0.21527394  1.0
  P  P4288  1  0.57313167  0.12004423  0.21527394  1.0
  P  P4289  1  0.57313167  0.24504423  0.21527394  1.0
  P  P4290  1  0.57313167  0.37004423  0.21527394  1.0
  P  P4291  1  0.57313167  0.49504423  0.21527394  1.0
  P  P4292  1  0.57313167  0.62004423  0.21527394  1.0
  P  P4293  1  0.57313167  0.74504423  0.21527394  1.0
  P  P4294  1  0.57313167  0.87004423  0.21527394  1.0
  P  P4295  1  0.57313167  0.99504423  0.21527394  1.0
  P  P4296  1  0.68424279  0.12004423  0.21527394  1.0
  P  P4297  1  0.68424279  0.24504423  0.21527394  1.0
  P  P4298  1  0.68424279  0.37004423  0.21527394  1.0
  P  P4299  1  0.68424279  0.49504423  0.21527394  1.0
  P  P4300  1  0.68424279  0.62004423  0.21527394  1.0
  P  P4301  1  0.68424279  0.74504423  0.21527394  1.0
  P  P4302  1  0.68424279  0.87004423  0.21527394  1.0
  P  P4303  1  0.68424279  0.99504423  0.21527394  1.0
  P  P4304  1  0.79535390  0.12004423  0.21527394  1.0
  P  P4305  1  0.79535390  0.24504423  0.21527394  1.0
  P  P4306  1  0.79535390  0.37004423  0.21527394  1.0
  P  P4307  1  0.79535390  0.49504423  0.21527394  1.0
  P  P4308  1  0.79535390  0.62004423  0.21527394  1.0
  P  P4309  1  0.79535390  0.74504423  0.21527394  1.0
  P  P4310  1  0.79535390  0.87004423  0.21527394  1.0
  P  P4311  1  0.79535390  0.99504423  0.21527394  1.0
  P  P4312  1  0.90646501  0.12004423  0.21527394  1.0
  P  P4313  1  0.90646501  0.24504423  0.21527394  1.0
  P  P4314  1  0.90646501  0.37004423  0.21527394  1.0
  P  P4315  1  0.90646501  0.49504423  0.21527394  1.0
  P  P4316  1  0.90646501  0.62004423  0.21527394  1.0
  P  P4317  1  0.90646501  0.74504423  0.21527394  1.0
  P  P4318  1  0.90646501  0.87004423  0.21527394  1.0
  P  P4319  1  0.90646501  0.99504423  0.21527394  1.0
  P  P4320  1  0.07048617  0.12004423  0.31051203  1.0
  P  P4321  1  0.07048617  0.24504423  0.31051203  1.0
  P  P4322  1  0.07048617  0.37004423  0.31051203  1.0
  P  P4323  1  0.07048617  0.49504423  0.31051203  1.0
  P  P4324  1  0.07048617  0.62004423  0.31051203  1.0
  P  P4325  1  0.07048617  0.74504423  0.31051203  1.0
  P  P4326  1  0.07048617  0.87004423  0.31051203  1.0
  P  P4327  1  0.07048617  0.99504423  0.31051203  1.0
  P  P4328  1  0.18159728  0.12004423  0.31051203  1.0
  P  P4329  1  0.18159728  0.24504423  0.31051203  1.0
  P  P4330  1  0.18159728  0.37004423  0.31051203  1.0
  P  P4331  1  0.18159728  0.49504423  0.31051203  1.0
  P  P4332  1  0.18159728  0.62004423  0.31051203  1.0
  P  P4333  1  0.18159728  0.74504423  0.31051203  1.0
  P  P4334  1  0.18159728  0.87004423  0.31051203  1.0
  P  P4335  1  0.18159728  0.99504423  0.31051203  1.0
  P  P4336  1  0.29270839  0.12004423  0.31051203  1.0
  P  P4337  1  0.29270839  0.24504423  0.31051203  1.0
  P  P4338  1  0.29270839  0.37004423  0.31051203  1.0
  P  P4339  1  0.29270839  0.49504423  0.31051203  1.0
  P  P4340  1  0.29270839  0.62004423  0.31051203  1.0
  P  P4341  1  0.29270839  0.74504423  0.31051203  1.0
  P  P4342  1  0.29270839  0.87004423  0.31051203  1.0
  P  P4343  1  0.29270839  0.99504423  0.31051203  1.0
  P  P4344  1  0.40381951  0.12004423  0.31051203  1.0
  P  P4345  1  0.40381951  0.24504423  0.31051203  1.0
  P  P4346  1  0.40381951  0.37004423  0.31051203  1.0
  P  P4347  1  0.40381951  0.49504423  0.31051203  1.0
  P  P4348  1  0.40381951  0.62004423  0.31051203  1.0
  P  P4349  1  0.40381951  0.74504423  0.31051203  1.0
  P  P4350  1  0.40381951  0.87004423  0.31051203  1.0
  P  P4351  1  0.40381951  0.99504423  0.31051203  1.0
  P  P4352  1  0.51493062  0.12004423  0.31051203  1.0
  P  P4353  1  0.51493062  0.24504423  0.31051203  1.0
  P  P4354  1  0.51493062  0.37004423  0.31051203  1.0
  P  P4355  1  0.51493062  0.49504423  0.31051203  1.0
  P  P4356  1  0.51493062  0.62004423  0.31051203  1.0
  P  P4357  1  0.51493062  0.74504423  0.31051203  1.0
  P  P4358  1  0.51493062  0.87004423  0.31051203  1.0
  P  P4359  1  0.51493062  0.99504423  0.31051203  1.0
  P  P4360  1  0.62604173  0.12004423  0.31051203  1.0
  P  P4361  1  0.62604173  0.24504423  0.31051203  1.0
  P  P4362  1  0.62604173  0.37004423  0.31051203  1.0
  P  P4363  1  0.62604173  0.49504423  0.31051203  1.0
  P  P4364  1  0.62604173  0.62004423  0.31051203  1.0
  P  P4365  1  0.62604173  0.74504423  0.31051203  1.0
  P  P4366  1  0.62604173  0.87004423  0.31051203  1.0
  P  P4367  1  0.62604173  0.99504423  0.31051203  1.0
  P  P4368  1  0.73715284  0.12004423  0.31051203  1.0
  P  P4369  1  0.73715284  0.24504423  0.31051203  1.0
  P  P4370  1  0.73715284  0.37004423  0.31051203  1.0
  P  P4371  1  0.73715284  0.49504423  0.31051203  1.0
  P  P4372  1  0.73715284  0.62004423  0.31051203  1.0
  P  P4373  1  0.73715284  0.74504423  0.31051203  1.0
  P  P4374  1  0.73715284  0.87004423  0.31051203  1.0
  P  P4375  1  0.73715284  0.99504423  0.31051203  1.0
  P  P4376  1  0.84826395  0.12004423  0.31051203  1.0
  P  P4377  1  0.84826395  0.24504423  0.31051203  1.0
  P  P4378  1  0.84826395  0.37004423  0.31051203  1.0
  P  P4379  1  0.84826395  0.49504423  0.31051203  1.0
  P  P4380  1  0.84826395  0.62004423  0.31051203  1.0
  P  P4381  1  0.84826395  0.74504423  0.31051203  1.0
  P  P4382  1  0.84826395  0.87004423  0.31051203  1.0
  P  P4383  1  0.84826395  0.99504423  0.31051203  1.0
  P  P4384  1  0.95937506  0.12004423  0.31051203  1.0
  P  P4385  1  0.95937506  0.24504423  0.31051203  1.0
  P  P4386  1  0.95937506  0.37004423  0.31051203  1.0
  P  P4387  1  0.95937506  0.49504423  0.31051203  1.0
  P  P4388  1  0.95937506  0.62004423  0.31051203  1.0
  P  P4389  1  0.95937506  0.74504423  0.31051203  1.0
  P  P4390  1  0.95937506  0.87004423  0.31051203  1.0
  P  P4391  1  0.95937506  0.99504423  0.31051203  1.0
  P  P4392  1  0.01043963  0.00495577  0.25053821  1.0
  P  P4393  1  0.01043963  0.12995577  0.25053821  1.0
  P  P4394  1  0.01043963  0.25495577  0.25053821  1.0
  P  P4395  1  0.01043963  0.37995577  0.25053821  1.0
  P  P4396  1  0.01043963  0.50495577  0.25053821  1.0
  P  P4397  1  0.01043963  0.62995577  0.25053821  1.0
  P  P4398  1  0.01043963  0.75495577  0.25053821  1.0
  P  P4399  1  0.01043963  0.87995577  0.25053821  1.0
  P  P4400  1  0.12155074  0.00495577  0.25053821  1.0
  P  P4401  1  0.12155074  0.12995577  0.25053821  1.0
  P  P4402  1  0.12155074  0.25495577  0.25053821  1.0
  P  P4403  1  0.12155074  0.37995577  0.25053821  1.0
  P  P4404  1  0.12155074  0.50495577  0.25053821  1.0
  P  P4405  1  0.12155074  0.62995577  0.25053821  1.0
  P  P4406  1  0.12155074  0.75495577  0.25053821  1.0
  P  P4407  1  0.12155074  0.87995577  0.25053821  1.0
  P  P4408  1  0.23266185  0.00495577  0.25053821  1.0
  P  P4409  1  0.23266185  0.12995577  0.25053821  1.0
  P  P4410  1  0.23266185  0.25495577  0.25053821  1.0
  P  P4411  1  0.23266185  0.37995577  0.25053821  1.0
  P  P4412  1  0.23266185  0.50495577  0.25053821  1.0
  P  P4413  1  0.23266185  0.62995577  0.25053821  1.0
  P  P4414  1  0.23266185  0.75495577  0.25053821  1.0
  P  P4415  1  0.23266185  0.87995577  0.25053821  1.0
  P  P4416  1  0.34377296  0.00495577  0.25053821  1.0
  P  P4417  1  0.34377296  0.12995577  0.25053821  1.0
  P  P4418  1  0.34377296  0.25495577  0.25053821  1.0
  P  P4419  1  0.34377296  0.37995577  0.25053821  1.0
  P  P4420  1  0.34377296  0.50495577  0.25053821  1.0
  P  P4421  1  0.34377296  0.62995577  0.25053821  1.0
  P  P4422  1  0.34377296  0.75495577  0.25053821  1.0
  P  P4423  1  0.34377296  0.87995577  0.25053821  1.0
  P  P4424  1  0.45488407  0.00495577  0.25053821  1.0
  P  P4425  1  0.45488407  0.12995577  0.25053821  1.0
  P  P4426  1  0.45488407  0.25495577  0.25053821  1.0
  P  P4427  1  0.45488407  0.37995577  0.25053821  1.0
  P  P4428  1  0.45488407  0.50495577  0.25053821  1.0
  P  P4429  1  0.45488407  0.62995577  0.25053821  1.0
  P  P4430  1  0.45488407  0.75495577  0.25053821  1.0
  P  P4431  1  0.45488407  0.87995577  0.25053821  1.0
  P  P4432  1  0.56599519  0.00495577  0.25053821  1.0
  P  P4433  1  0.56599519  0.12995577  0.25053821  1.0
  P  P4434  1  0.56599519  0.25495577  0.25053821  1.0
  P  P4435  1  0.56599519  0.37995577  0.25053821  1.0
  P  P4436  1  0.56599519  0.50495577  0.25053821  1.0
  P  P4437  1  0.56599519  0.62995577  0.25053821  1.0
  P  P4438  1  0.56599519  0.75495577  0.25053821  1.0
  P  P4439  1  0.56599519  0.87995577  0.25053821  1.0
  P  P4440  1  0.67710630  0.00495577  0.25053821  1.0
  P  P4441  1  0.67710630  0.12995577  0.25053821  1.0
  P  P4442  1  0.67710630  0.25495577  0.25053821  1.0
  P  P4443  1  0.67710630  0.37995577  0.25053821  1.0
  P  P4444  1  0.67710630  0.50495577  0.25053821  1.0
  P  P4445  1  0.67710630  0.62995577  0.25053821  1.0
  P  P4446  1  0.67710630  0.75495577  0.25053821  1.0
  P  P4447  1  0.67710630  0.87995577  0.25053821  1.0
  P  P4448  1  0.78821741  0.00495577  0.25053821  1.0
  P  P4449  1  0.78821741  0.12995577  0.25053821  1.0
  P  P4450  1  0.78821741  0.25495577  0.25053821  1.0
  P  P4451  1  0.78821741  0.37995577  0.25053821  1.0
  P  P4452  1  0.78821741  0.50495577  0.25053821  1.0
  P  P4453  1  0.78821741  0.62995577  0.25053821  1.0
  P  P4454  1  0.78821741  0.75495577  0.25053821  1.0
  P  P4455  1  0.78821741  0.87995577  0.25053821  1.0
  P  P4456  1  0.89932852  0.00495577  0.25053821  1.0
  P  P4457  1  0.89932852  0.12995577  0.25053821  1.0
  P  P4458  1  0.89932852  0.25495577  0.25053821  1.0
  P  P4459  1  0.89932852  0.37995577  0.25053821  1.0
  P  P4460  1  0.89932852  0.50495577  0.25053821  1.0
  P  P4461  1  0.89932852  0.62995577  0.25053821  1.0
  P  P4462  1  0.89932852  0.75495577  0.25053821  1.0
  P  P4463  1  0.89932852  0.87995577  0.25053821  1.0
  P  P4464  1  0.06334968  0.00495577  0.34577631  1.0
  P  P4465  1  0.06334968  0.12995577  0.34577631  1.0
  P  P4466  1  0.06334968  0.25495577  0.34577631  1.0
  P  P4467  1  0.06334968  0.37995577  0.34577631  1.0
  P  P4468  1  0.06334968  0.50495577  0.34577631  1.0
  P  P4469  1  0.06334968  0.62995577  0.34577631  1.0
  P  P4470  1  0.06334968  0.75495577  0.34577631  1.0
  P  P4471  1  0.06334968  0.87995577  0.34577631  1.0
  P  P4472  1  0.17446079  0.00495577  0.34577631  1.0
  P  P4473  1  0.17446079  0.12995577  0.34577631  1.0
  P  P4474  1  0.17446079  0.25495577  0.34577631  1.0
  P  P4475  1  0.17446079  0.37995577  0.34577631  1.0
  P  P4476  1  0.17446079  0.50495577  0.34577631  1.0
  P  P4477  1  0.17446079  0.62995577  0.34577631  1.0
  P  P4478  1  0.17446079  0.75495577  0.34577631  1.0
  P  P4479  1  0.17446079  0.87995577  0.34577631  1.0
  P  P4480  1  0.28557191  0.00495577  0.34577631  1.0
  P  P4481  1  0.28557191  0.12995577  0.34577631  1.0
  P  P4482  1  0.28557191  0.25495577  0.34577631  1.0
  P  P4483  1  0.28557191  0.37995577  0.34577631  1.0
  P  P4484  1  0.28557191  0.50495577  0.34577631  1.0
  P  P4485  1  0.28557191  0.62995577  0.34577631  1.0
  P  P4486  1  0.28557191  0.75495577  0.34577631  1.0
  P  P4487  1  0.28557191  0.87995577  0.34577631  1.0
  P  P4488  1  0.39668302  0.00495577  0.34577631  1.0
  P  P4489  1  0.39668302  0.12995577  0.34577631  1.0
  P  P4490  1  0.39668302  0.25495577  0.34577631  1.0
  P  P4491  1  0.39668302  0.37995577  0.34577631  1.0
  P  P4492  1  0.39668302  0.50495577  0.34577631  1.0
  P  P4493  1  0.39668302  0.62995577  0.34577631  1.0
  P  P4494  1  0.39668302  0.75495577  0.34577631  1.0
  P  P4495  1  0.39668302  0.87995577  0.34577631  1.0
  P  P4496  1  0.50779413  0.00495577  0.34577631  1.0
  P  P4497  1  0.50779413  0.12995577  0.34577631  1.0
  P  P4498  1  0.50779413  0.25495577  0.34577631  1.0
  P  P4499  1  0.50779413  0.37995577  0.34577631  1.0
  P  P4500  1  0.50779413  0.50495577  0.34577631  1.0
  P  P4501  1  0.50779413  0.62995577  0.34577631  1.0
  P  P4502  1  0.50779413  0.75495577  0.34577631  1.0
  P  P4503  1  0.50779413  0.87995577  0.34577631  1.0
  P  P4504  1  0.61890524  0.00495577  0.34577631  1.0
  P  P4505  1  0.61890524  0.12995577  0.34577631  1.0
  P  P4506  1  0.61890524  0.25495577  0.34577631  1.0
  P  P4507  1  0.61890524  0.37995577  0.34577631  1.0
  P  P4508  1  0.61890524  0.50495577  0.34577631  1.0
  P  P4509  1  0.61890524  0.62995577  0.34577631  1.0
  P  P4510  1  0.61890524  0.75495577  0.34577631  1.0
  P  P4511  1  0.61890524  0.87995577  0.34577631  1.0
  P  P4512  1  0.73001635  0.00495577  0.34577631  1.0
  P  P4513  1  0.73001635  0.12995577  0.34577631  1.0
  P  P4514  1  0.73001635  0.25495577  0.34577631  1.0
  P  P4515  1  0.73001635  0.37995577  0.34577631  1.0
  P  P4516  1  0.73001635  0.50495577  0.34577631  1.0
  P  P4517  1  0.73001635  0.62995577  0.34577631  1.0
  P  P4518  1  0.73001635  0.75495577  0.34577631  1.0
  P  P4519  1  0.73001635  0.87995577  0.34577631  1.0
  P  P4520  1  0.84112746  0.00495577  0.34577631  1.0
  P  P4521  1  0.84112746  0.12995577  0.34577631  1.0
  P  P4522  1  0.84112746  0.25495577  0.34577631  1.0
  P  P4523  1  0.84112746  0.37995577  0.34577631  1.0
  P  P4524  1  0.84112746  0.50495577  0.34577631  1.0
  P  P4525  1  0.84112746  0.62995577  0.34577631  1.0
  P  P4526  1  0.84112746  0.75495577  0.34577631  1.0
  P  P4527  1  0.84112746  0.87995577  0.34577631  1.0
  P  P4528  1  0.95223857  0.00495577  0.34577631  1.0
  P  P4529  1  0.95223857  0.12995577  0.34577631  1.0
  P  P4530  1  0.95223857  0.25495577  0.34577631  1.0
  P  P4531  1  0.95223857  0.37995577  0.34577631  1.0
  P  P4532  1  0.95223857  0.50495577  0.34577631  1.0
  P  P4533  1  0.95223857  0.62995577  0.34577631  1.0
  P  P4534  1  0.95223857  0.75495577  0.34577631  1.0
  P  P4535  1  0.95223857  0.87995577  0.34577631  1.0
  P  P4536  1  0.03689466  0.00495577  0.29815726  1.0
  P  P4537  1  0.03689466  0.12995577  0.29815726  1.0
  P  P4538  1  0.03689466  0.25495577  0.29815726  1.0
  P  P4539  1  0.03689466  0.37995577  0.29815726  1.0
  P  P4540  1  0.03689466  0.50495577  0.29815726  1.0
  P  P4541  1  0.03689466  0.62995577  0.29815726  1.0
  P  P4542  1  0.03689466  0.75495577  0.29815726  1.0
  P  P4543  1  0.03689466  0.87995577  0.29815726  1.0
  P  P4544  1  0.14800577  0.00495577  0.29815726  1.0
  P  P4545  1  0.14800577  0.12995577  0.29815726  1.0
  P  P4546  1  0.14800577  0.25495577  0.29815726  1.0
  P  P4547  1  0.14800577  0.37995577  0.29815726  1.0
  P  P4548  1  0.14800577  0.50495577  0.29815726  1.0
  P  P4549  1  0.14800577  0.62995577  0.29815726  1.0
  P  P4550  1  0.14800577  0.75495577  0.29815726  1.0
  P  P4551  1  0.14800577  0.87995577  0.29815726  1.0
  P  P4552  1  0.25911688  0.00495577  0.29815726  1.0
  P  P4553  1  0.25911688  0.12995577  0.29815726  1.0
  P  P4554  1  0.25911688  0.25495577  0.29815726  1.0
  P  P4555  1  0.25911688  0.37995577  0.29815726  1.0
  P  P4556  1  0.25911688  0.50495577  0.29815726  1.0
  P  P4557  1  0.25911688  0.62995577  0.29815726  1.0
  P  P4558  1  0.25911688  0.75495577  0.29815726  1.0
  P  P4559  1  0.25911688  0.87995577  0.29815726  1.0
  P  P4560  1  0.37022799  0.00495577  0.29815726  1.0
  P  P4561  1  0.37022799  0.12995577  0.29815726  1.0
  P  P4562  1  0.37022799  0.25495577  0.29815726  1.0
  P  P4563  1  0.37022799  0.37995577  0.29815726  1.0
  P  P4564  1  0.37022799  0.50495577  0.29815726  1.0
  P  P4565  1  0.37022799  0.62995577  0.29815726  1.0
  P  P4566  1  0.37022799  0.75495577  0.29815726  1.0
  P  P4567  1  0.37022799  0.87995577  0.29815726  1.0
  P  P4568  1  0.48133910  0.00495577  0.29815726  1.0
  P  P4569  1  0.48133910  0.12995577  0.29815726  1.0
  P  P4570  1  0.48133910  0.25495577  0.29815726  1.0
  P  P4571  1  0.48133910  0.37995577  0.29815726  1.0
  P  P4572  1  0.48133910  0.50495577  0.29815726  1.0
  P  P4573  1  0.48133910  0.62995577  0.29815726  1.0
  P  P4574  1  0.48133910  0.75495577  0.29815726  1.0
  P  P4575  1  0.48133910  0.87995577  0.29815726  1.0
  P  P4576  1  0.59245021  0.00495577  0.29815726  1.0
  P  P4577  1  0.59245021  0.12995577  0.29815726  1.0
  P  P4578  1  0.59245021  0.25495577  0.29815726  1.0
  P  P4579  1  0.59245021  0.37995577  0.29815726  1.0
  P  P4580  1  0.59245021  0.50495577  0.29815726  1.0
  P  P4581  1  0.59245021  0.62995577  0.29815726  1.0
  P  P4582  1  0.59245021  0.75495577  0.29815726  1.0
  P  P4583  1  0.59245021  0.87995577  0.29815726  1.0
  P  P4584  1  0.70356132  0.00495577  0.29815726  1.0
  P  P4585  1  0.70356132  0.12995577  0.29815726  1.0
  P  P4586  1  0.70356132  0.25495577  0.29815726  1.0
  P  P4587  1  0.70356132  0.37995577  0.29815726  1.0
  P  P4588  1  0.70356132  0.50495577  0.29815726  1.0
  P  P4589  1  0.70356132  0.62995577  0.29815726  1.0
  P  P4590  1  0.70356132  0.75495577  0.29815726  1.0
  P  P4591  1  0.70356132  0.87995577  0.29815726  1.0
  P  P4592  1  0.81467243  0.00495577  0.29815726  1.0
  P  P4593  1  0.81467243  0.12995577  0.29815726  1.0
  P  P4594  1  0.81467243  0.25495577  0.29815726  1.0
  P  P4595  1  0.81467243  0.37995577  0.29815726  1.0
  P  P4596  1  0.81467243  0.50495577  0.29815726  1.0
  P  P4597  1  0.81467243  0.62995577  0.29815726  1.0
  P  P4598  1  0.81467243  0.75495577  0.29815726  1.0
  P  P4599  1  0.81467243  0.87995577  0.29815726  1.0
  P  P4600  1  0.92578355  0.00495577  0.29815726  1.0
  P  P4601  1  0.92578355  0.12995577  0.29815726  1.0
  P  P4602  1  0.92578355  0.25495577  0.29815726  1.0
  P  P4603  1  0.92578355  0.37995577  0.29815726  1.0
  P  P4604  1  0.92578355  0.50495577  0.29815726  1.0
  P  P4605  1  0.92578355  0.62995577  0.29815726  1.0
  P  P4606  1  0.92578355  0.75495577  0.29815726  1.0
  P  P4607  1  0.92578355  0.87995577  0.29815726  1.0
  P  P4608  1  0.08635919  0.06745577  0.23908346  1.0
  P  P4609  1  0.08635919  0.19245577  0.23908346  1.0
  P  P4610  1  0.08635919  0.31745577  0.23908346  1.0
  P  P4611  1  0.08635919  0.44245577  0.23908346  1.0
  P  P4612  1  0.08635919  0.56745577  0.23908346  1.0
  P  P4613  1  0.08635919  0.69245577  0.23908346  1.0
  P  P4614  1  0.08635919  0.81745577  0.23908346  1.0
  P  P4615  1  0.08635919  0.94245577  0.23908346  1.0
  P  P4616  1  0.19747030  0.06745577  0.23908346  1.0
  P  P4617  1  0.19747030  0.19245577  0.23908346  1.0
  P  P4618  1  0.19747030  0.31745577  0.23908346  1.0
  P  P4619  1  0.19747030  0.44245577  0.23908346  1.0
  P  P4620  1  0.19747030  0.56745577  0.23908346  1.0
  P  P4621  1  0.19747030  0.69245577  0.23908346  1.0
  P  P4622  1  0.19747030  0.81745577  0.23908346  1.0
  P  P4623  1  0.19747030  0.94245577  0.23908346  1.0
  P  P4624  1  0.30858141  0.06745577  0.23908346  1.0
  P  P4625  1  0.30858141  0.19245577  0.23908346  1.0
  P  P4626  1  0.30858141  0.31745577  0.23908346  1.0
  P  P4627  1  0.30858141  0.44245577  0.23908346  1.0
  P  P4628  1  0.30858141  0.56745577  0.23908346  1.0
  P  P4629  1  0.30858141  0.69245577  0.23908346  1.0
  P  P4630  1  0.30858141  0.81745577  0.23908346  1.0
  P  P4631  1  0.30858141  0.94245577  0.23908346  1.0
  P  P4632  1  0.41969252  0.06745577  0.23908346  1.0
  P  P4633  1  0.41969252  0.19245577  0.23908346  1.0
  P  P4634  1  0.41969252  0.31745577  0.23908346  1.0
  P  P4635  1  0.41969252  0.44245577  0.23908346  1.0
  P  P4636  1  0.41969252  0.56745577  0.23908346  1.0
  P  P4637  1  0.41969252  0.69245577  0.23908346  1.0
  P  P4638  1  0.41969252  0.81745577  0.23908346  1.0
  P  P4639  1  0.41969252  0.94245577  0.23908346  1.0
  P  P4640  1  0.53080363  0.06745577  0.23908346  1.0
  P  P4641  1  0.53080363  0.19245577  0.23908346  1.0
  P  P4642  1  0.53080363  0.31745577  0.23908346  1.0
  P  P4643  1  0.53080363  0.44245577  0.23908346  1.0
  P  P4644  1  0.53080363  0.56745577  0.23908346  1.0
  P  P4645  1  0.53080363  0.69245577  0.23908346  1.0
  P  P4646  1  0.53080363  0.81745577  0.23908346  1.0
  P  P4647  1  0.53080363  0.94245577  0.23908346  1.0
  P  P4648  1  0.64191474  0.06745577  0.23908346  1.0
  P  P4649  1  0.64191474  0.19245577  0.23908346  1.0
  P  P4650  1  0.64191474  0.31745577  0.23908346  1.0
  P  P4651  1  0.64191474  0.44245577  0.23908346  1.0
  P  P4652  1  0.64191474  0.56745577  0.23908346  1.0
  P  P4653  1  0.64191474  0.69245577  0.23908346  1.0
  P  P4654  1  0.64191474  0.81745577  0.23908346  1.0
  P  P4655  1  0.64191474  0.94245577  0.23908346  1.0
  P  P4656  1  0.75302585  0.06745577  0.23908346  1.0
  P  P4657  1  0.75302585  0.19245577  0.23908346  1.0
  P  P4658  1  0.75302585  0.31745577  0.23908346  1.0
  P  P4659  1  0.75302585  0.44245577  0.23908346  1.0
  P  P4660  1  0.75302585  0.56745577  0.23908346  1.0
  P  P4661  1  0.75302585  0.69245577  0.23908346  1.0
  P  P4662  1  0.75302585  0.81745577  0.23908346  1.0
  P  P4663  1  0.75302585  0.94245577  0.23908346  1.0
  P  P4664  1  0.86413697  0.06745577  0.23908346  1.0
  P  P4665  1  0.86413697  0.19245577  0.23908346  1.0
  P  P4666  1  0.86413697  0.31745577  0.23908346  1.0
  P  P4667  1  0.86413697  0.44245577  0.23908346  1.0
  P  P4668  1  0.86413697  0.56745577  0.23908346  1.0
  P  P4669  1  0.86413697  0.69245577  0.23908346  1.0
  P  P4670  1  0.86413697  0.81745577  0.23908346  1.0
  P  P4671  1  0.86413697  0.94245577  0.23908346  1.0
  P  P4672  1  0.97524808  0.06745577  0.23908346  1.0
  P  P4673  1  0.97524808  0.19245577  0.23908346  1.0
  P  P4674  1  0.97524808  0.31745577  0.23908346  1.0
  P  P4675  1  0.97524808  0.44245577  0.23908346  1.0
  P  P4676  1  0.97524808  0.56745577  0.23908346  1.0
  P  P4677  1  0.97524808  0.69245577  0.23908346  1.0
  P  P4678  1  0.97524808  0.81745577  0.23908346  1.0
  P  P4679  1  0.97524808  0.94245577  0.23908346  1.0
  P  P4680  1  0.02815813  0.06745577  0.33432156  1.0
  P  P4681  1  0.02815813  0.19245577  0.33432156  1.0
  P  P4682  1  0.02815813  0.31745577  0.33432156  1.0
  P  P4683  1  0.02815813  0.44245577  0.33432156  1.0
  P  P4684  1  0.02815813  0.56745577  0.33432156  1.0
  P  P4685  1  0.02815813  0.69245577  0.33432156  1.0
  P  P4686  1  0.02815813  0.81745577  0.33432156  1.0
  P  P4687  1  0.02815813  0.94245577  0.33432156  1.0
  P  P4688  1  0.13926924  0.06745577  0.33432156  1.0
  P  P4689  1  0.13926924  0.19245577  0.33432156  1.0
  P  P4690  1  0.13926924  0.31745577  0.33432156  1.0
  P  P4691  1  0.13926924  0.44245577  0.33432156  1.0
  P  P4692  1  0.13926924  0.56745577  0.33432156  1.0
  P  P4693  1  0.13926924  0.69245577  0.33432156  1.0
  P  P4694  1  0.13926924  0.81745577  0.33432156  1.0
  P  P4695  1  0.13926924  0.94245577  0.33432156  1.0
  P  P4696  1  0.25038035  0.06745577  0.33432156  1.0
  P  P4697  1  0.25038035  0.19245577  0.33432156  1.0
  P  P4698  1  0.25038035  0.31745577  0.33432156  1.0
  P  P4699  1  0.25038035  0.44245577  0.33432156  1.0
  P  P4700  1  0.25038035  0.56745577  0.33432156  1.0
  P  P4701  1  0.25038035  0.69245577  0.33432156  1.0
  P  P4702  1  0.25038035  0.81745577  0.33432156  1.0
  P  P4703  1  0.25038035  0.94245577  0.33432156  1.0
  P  P4704  1  0.36149146  0.06745577  0.33432156  1.0
  P  P4705  1  0.36149146  0.19245577  0.33432156  1.0
  P  P4706  1  0.36149146  0.31745577  0.33432156  1.0
  P  P4707  1  0.36149146  0.44245577  0.33432156  1.0
  P  P4708  1  0.36149146  0.56745577  0.33432156  1.0
  P  P4709  1  0.36149146  0.69245577  0.33432156  1.0
  P  P4710  1  0.36149146  0.81745577  0.33432156  1.0
  P  P4711  1  0.36149146  0.94245577  0.33432156  1.0
  P  P4712  1  0.47260257  0.06745577  0.33432156  1.0
  P  P4713  1  0.47260257  0.19245577  0.33432156  1.0
  P  P4714  1  0.47260257  0.31745577  0.33432156  1.0
  P  P4715  1  0.47260257  0.44245577  0.33432156  1.0
  P  P4716  1  0.47260257  0.56745577  0.33432156  1.0
  P  P4717  1  0.47260257  0.69245577  0.33432156  1.0
  P  P4718  1  0.47260257  0.81745577  0.33432156  1.0
  P  P4719  1  0.47260257  0.94245577  0.33432156  1.0
  P  P4720  1  0.58371369  0.06745577  0.33432156  1.0
  P  P4721  1  0.58371369  0.19245577  0.33432156  1.0
  P  P4722  1  0.58371369  0.31745577  0.33432156  1.0
  P  P4723  1  0.58371369  0.44245577  0.33432156  1.0
  P  P4724  1  0.58371369  0.56745577  0.33432156  1.0
  P  P4725  1  0.58371369  0.69245577  0.33432156  1.0
  P  P4726  1  0.58371369  0.81745577  0.33432156  1.0
  P  P4727  1  0.58371369  0.94245577  0.33432156  1.0
  P  P4728  1  0.69482480  0.06745577  0.33432156  1.0
  P  P4729  1  0.69482480  0.19245577  0.33432156  1.0
  P  P4730  1  0.69482480  0.31745577  0.33432156  1.0
  P  P4731  1  0.69482480  0.44245577  0.33432156  1.0
  P  P4732  1  0.69482480  0.56745577  0.33432156  1.0
  P  P4733  1  0.69482480  0.69245577  0.33432156  1.0
  P  P4734  1  0.69482480  0.81745577  0.33432156  1.0
  P  P4735  1  0.69482480  0.94245577  0.33432156  1.0
  P  P4736  1  0.80593591  0.06745577  0.33432156  1.0
  P  P4737  1  0.80593591  0.19245577  0.33432156  1.0
  P  P4738  1  0.80593591  0.31745577  0.33432156  1.0
  P  P4739  1  0.80593591  0.44245577  0.33432156  1.0
  P  P4740  1  0.80593591  0.56745577  0.33432156  1.0
  P  P4741  1  0.80593591  0.69245577  0.33432156  1.0
  P  P4742  1  0.80593591  0.81745577  0.33432156  1.0
  P  P4743  1  0.80593591  0.94245577  0.33432156  1.0
  P  P4744  1  0.91704702  0.06745577  0.33432156  1.0
  P  P4745  1  0.91704702  0.19245577  0.33432156  1.0
  P  P4746  1  0.91704702  0.31745577  0.33432156  1.0
  P  P4747  1  0.91704702  0.44245577  0.33432156  1.0
  P  P4748  1  0.91704702  0.56745577  0.33432156  1.0
  P  P4749  1  0.91704702  0.69245577  0.33432156  1.0
  P  P4750  1  0.91704702  0.81745577  0.33432156  1.0
  P  P4751  1  0.91704702  0.94245577  0.33432156  1.0
  P  P4752  1  0.00170310  0.06745577  0.28670251  1.0
  P  P4753  1  0.00170310  0.19245577  0.28670251  1.0
  P  P4754  1  0.00170310  0.31745577  0.28670251  1.0
  P  P4755  1  0.00170310  0.44245577  0.28670251  1.0
  P  P4756  1  0.00170310  0.56745577  0.28670251  1.0
  P  P4757  1  0.00170310  0.69245577  0.28670251  1.0
  P  P4758  1  0.00170310  0.81745577  0.28670251  1.0
  P  P4759  1  0.00170310  0.94245577  0.28670251  1.0
  P  P4760  1  0.11281421  0.06745577  0.28670251  1.0
  P  P4761  1  0.11281421  0.19245577  0.28670251  1.0
  P  P4762  1  0.11281421  0.31745577  0.28670251  1.0
  P  P4763  1  0.11281421  0.44245577  0.28670251  1.0
  P  P4764  1  0.11281421  0.56745577  0.28670251  1.0
  P  P4765  1  0.11281421  0.69245577  0.28670251  1.0
  P  P4766  1  0.11281421  0.81745577  0.28670251  1.0
  P  P4767  1  0.11281421  0.94245577  0.28670251  1.0
  P  P4768  1  0.22392533  0.06745577  0.28670251  1.0
  P  P4769  1  0.22392533  0.19245577  0.28670251  1.0
  P  P4770  1  0.22392533  0.31745577  0.28670251  1.0
  P  P4771  1  0.22392533  0.44245577  0.28670251  1.0
  P  P4772  1  0.22392533  0.56745577  0.28670251  1.0
  P  P4773  1  0.22392533  0.69245577  0.28670251  1.0
  P  P4774  1  0.22392533  0.81745577  0.28670251  1.0
  P  P4775  1  0.22392533  0.94245577  0.28670251  1.0
  P  P4776  1  0.33503644  0.06745577  0.28670251  1.0
  P  P4777  1  0.33503644  0.19245577  0.28670251  1.0
  P  P4778  1  0.33503644  0.31745577  0.28670251  1.0
  P  P4779  1  0.33503644  0.44245577  0.28670251  1.0
  P  P4780  1  0.33503644  0.56745577  0.28670251  1.0
  P  P4781  1  0.33503644  0.69245577  0.28670251  1.0
  P  P4782  1  0.33503644  0.81745577  0.28670251  1.0
  P  P4783  1  0.33503644  0.94245577  0.28670251  1.0
  P  P4784  1  0.44614755  0.06745577  0.28670251  1.0
  P  P4785  1  0.44614755  0.19245577  0.28670251  1.0
  P  P4786  1  0.44614755  0.31745577  0.28670251  1.0
  P  P4787  1  0.44614755  0.44245577  0.28670251  1.0
  P  P4788  1  0.44614755  0.56745577  0.28670251  1.0
  P  P4789  1  0.44614755  0.69245577  0.28670251  1.0
  P  P4790  1  0.44614755  0.81745577  0.28670251  1.0
  P  P4791  1  0.44614755  0.94245577  0.28670251  1.0
  P  P4792  1  0.55725866  0.06745577  0.28670251  1.0
  P  P4793  1  0.55725866  0.19245577  0.28670251  1.0
  P  P4794  1  0.55725866  0.31745577  0.28670251  1.0
  P  P4795  1  0.55725866  0.44245577  0.28670251  1.0
  P  P4796  1  0.55725866  0.56745577  0.28670251  1.0
  P  P4797  1  0.55725866  0.69245577  0.28670251  1.0
  P  P4798  1  0.55725866  0.81745577  0.28670251  1.0
  P  P4799  1  0.55725866  0.94245577  0.28670251  1.0
  P  P4800  1  0.66836977  0.06745577  0.28670251  1.0
  P  P4801  1  0.66836977  0.19245577  0.28670251  1.0
  P  P4802  1  0.66836977  0.31745577  0.28670251  1.0
  P  P4803  1  0.66836977  0.44245577  0.28670251  1.0
  P  P4804  1  0.66836977  0.56745577  0.28670251  1.0
  P  P4805  1  0.66836977  0.69245577  0.28670251  1.0
  P  P4806  1  0.66836977  0.81745577  0.28670251  1.0
  P  P4807  1  0.66836977  0.94245577  0.28670251  1.0
  P  P4808  1  0.77948088  0.06745577  0.28670251  1.0
  P  P4809  1  0.77948088  0.19245577  0.28670251  1.0
  P  P4810  1  0.77948088  0.31745577  0.28670251  1.0
  P  P4811  1  0.77948088  0.44245577  0.28670251  1.0
  P  P4812  1  0.77948088  0.56745577  0.28670251  1.0
  P  P4813  1  0.77948088  0.69245577  0.28670251  1.0
  P  P4814  1  0.77948088  0.81745577  0.28670251  1.0
  P  P4815  1  0.77948088  0.94245577  0.28670251  1.0
  P  P4816  1  0.89059199  0.06745577  0.28670251  1.0
  P  P4817  1  0.89059199  0.19245577  0.28670251  1.0
  P  P4818  1  0.89059199  0.31745577  0.28670251  1.0
  P  P4819  1  0.89059199  0.44245577  0.28670251  1.0
  P  P4820  1  0.89059199  0.56745577  0.28670251  1.0
  P  P4821  1  0.89059199  0.69245577  0.28670251  1.0
  P  P4822  1  0.89059199  0.81745577  0.28670251  1.0
  P  P4823  1  0.89059199  0.94245577  0.28670251  1.0
  P  P4824  1  0.07922270  0.05754423  0.27434774  1.0
  P  P4825  1  0.07922270  0.18254423  0.27434774  1.0
  P  P4826  1  0.07922270  0.30754423  0.27434774  1.0
  P  P4827  1  0.07922270  0.43254423  0.27434774  1.0
  P  P4828  1  0.07922270  0.55754423  0.27434774  1.0
  P  P4829  1  0.07922270  0.68254423  0.27434774  1.0
  P  P4830  1  0.07922270  0.80754423  0.27434774  1.0
  P  P4831  1  0.07922270  0.93254423  0.27434774  1.0
  P  P4832  1  0.19033381  0.05754423  0.27434774  1.0
  P  P4833  1  0.19033381  0.18254423  0.27434774  1.0
  P  P4834  1  0.19033381  0.30754423  0.27434774  1.0
  P  P4835  1  0.19033381  0.43254423  0.27434774  1.0
  P  P4836  1  0.19033381  0.55754423  0.27434774  1.0
  P  P4837  1  0.19033381  0.68254423  0.27434774  1.0
  P  P4838  1  0.19033381  0.80754423  0.27434774  1.0
  P  P4839  1  0.19033381  0.93254423  0.27434774  1.0
  P  P4840  1  0.30144492  0.05754423  0.27434774  1.0
  P  P4841  1  0.30144492  0.18254423  0.27434774  1.0
  P  P4842  1  0.30144492  0.30754423  0.27434774  1.0
  P  P4843  1  0.30144492  0.43254423  0.27434774  1.0
  P  P4844  1  0.30144492  0.55754423  0.27434774  1.0
  P  P4845  1  0.30144492  0.68254423  0.27434774  1.0
  P  P4846  1  0.30144492  0.80754423  0.27434774  1.0
  P  P4847  1  0.30144492  0.93254423  0.27434774  1.0
  P  P4848  1  0.41255603  0.05754423  0.27434774  1.0
  P  P4849  1  0.41255603  0.18254423  0.27434774  1.0
  P  P4850  1  0.41255603  0.30754423  0.27434774  1.0
  P  P4851  1  0.41255603  0.43254423  0.27434774  1.0
  P  P4852  1  0.41255603  0.55754423  0.27434774  1.0
  P  P4853  1  0.41255603  0.68254423  0.27434774  1.0
  P  P4854  1  0.41255603  0.80754423  0.27434774  1.0
  P  P4855  1  0.41255603  0.93254423  0.27434774  1.0
  P  P4856  1  0.52366714  0.05754423  0.27434774  1.0
  P  P4857  1  0.52366714  0.18254423  0.27434774  1.0
  P  P4858  1  0.52366714  0.30754423  0.27434774  1.0
  P  P4859  1  0.52366714  0.43254423  0.27434774  1.0
  P  P4860  1  0.52366714  0.55754423  0.27434774  1.0
  P  P4861  1  0.52366714  0.68254423  0.27434774  1.0
  P  P4862  1  0.52366714  0.80754423  0.27434774  1.0
  P  P4863  1  0.52366714  0.93254423  0.27434774  1.0
  P  P4864  1  0.63477825  0.05754423  0.27434774  1.0
  P  P4865  1  0.63477825  0.18254423  0.27434774  1.0
  P  P4866  1  0.63477825  0.30754423  0.27434774  1.0
  P  P4867  1  0.63477825  0.43254423  0.27434774  1.0
  P  P4868  1  0.63477825  0.55754423  0.27434774  1.0
  P  P4869  1  0.63477825  0.68254423  0.27434774  1.0
  P  P4870  1  0.63477825  0.80754423  0.27434774  1.0
  P  P4871  1  0.63477825  0.93254423  0.27434774  1.0
  P  P4872  1  0.74588937  0.05754423  0.27434774  1.0
  P  P4873  1  0.74588937  0.18254423  0.27434774  1.0
  P  P4874  1  0.74588937  0.30754423  0.27434774  1.0
  P  P4875  1  0.74588937  0.43254423  0.27434774  1.0
  P  P4876  1  0.74588937  0.55754423  0.27434774  1.0
  P  P4877  1  0.74588937  0.68254423  0.27434774  1.0
  P  P4878  1  0.74588937  0.80754423  0.27434774  1.0
  P  P4879  1  0.74588937  0.93254423  0.27434774  1.0
  P  P4880  1  0.85700048  0.05754423  0.27434774  1.0
  P  P4881  1  0.85700048  0.18254423  0.27434774  1.0
  P  P4882  1  0.85700048  0.30754423  0.27434774  1.0
  P  P4883  1  0.85700048  0.43254423  0.27434774  1.0
  P  P4884  1  0.85700048  0.55754423  0.27434774  1.0
  P  P4885  1  0.85700048  0.68254423  0.27434774  1.0
  P  P4886  1  0.85700048  0.80754423  0.27434774  1.0
  P  P4887  1  0.85700048  0.93254423  0.27434774  1.0
  P  P4888  1  0.96811159  0.05754423  0.27434774  1.0
  P  P4889  1  0.96811159  0.18254423  0.27434774  1.0
  P  P4890  1  0.96811159  0.30754423  0.27434774  1.0
  P  P4891  1  0.96811159  0.43254423  0.27434774  1.0
  P  P4892  1  0.96811159  0.55754423  0.27434774  1.0
  P  P4893  1  0.96811159  0.68254423  0.27434774  1.0
  P  P4894  1  0.96811159  0.80754423  0.27434774  1.0
  P  P4895  1  0.96811159  0.93254423  0.27434774  1.0
  P  P4896  1  0.05276767  0.05754423  0.22672869  1.0
  P  P4897  1  0.05276767  0.18254423  0.22672869  1.0
  P  P4898  1  0.05276767  0.30754423  0.22672869  1.0
  P  P4899  1  0.05276767  0.43254423  0.22672869  1.0
  P  P4900  1  0.05276767  0.55754423  0.22672869  1.0
  P  P4901  1  0.05276767  0.68254423  0.22672869  1.0
  P  P4902  1  0.05276767  0.80754423  0.22672869  1.0
  P  P4903  1  0.05276767  0.93254423  0.22672869  1.0
  P  P4904  1  0.16387878  0.05754423  0.22672869  1.0
  P  P4905  1  0.16387878  0.18254423  0.22672869  1.0
  P  P4906  1  0.16387878  0.30754423  0.22672869  1.0
  P  P4907  1  0.16387878  0.43254423  0.22672869  1.0
  P  P4908  1  0.16387878  0.55754423  0.22672869  1.0
  P  P4909  1  0.16387878  0.68254423  0.22672869  1.0
  P  P4910  1  0.16387878  0.80754423  0.22672869  1.0
  P  P4911  1  0.16387878  0.93254423  0.22672869  1.0
  P  P4912  1  0.27498989  0.05754423  0.22672869  1.0
  P  P4913  1  0.27498989  0.18254423  0.22672869  1.0
  P  P4914  1  0.27498989  0.30754423  0.22672869  1.0
  P  P4915  1  0.27498989  0.43254423  0.22672869  1.0
  P  P4916  1  0.27498989  0.55754423  0.22672869  1.0
  P  P4917  1  0.27498989  0.68254423  0.22672869  1.0
  P  P4918  1  0.27498989  0.80754423  0.22672869  1.0
  P  P4919  1  0.27498989  0.93254423  0.22672869  1.0
  P  P4920  1  0.38610101  0.05754423  0.22672869  1.0
  P  P4921  1  0.38610101  0.18254423  0.22672869  1.0
  P  P4922  1  0.38610101  0.30754423  0.22672869  1.0
  P  P4923  1  0.38610101  0.43254423  0.22672869  1.0
  P  P4924  1  0.38610101  0.55754423  0.22672869  1.0
  P  P4925  1  0.38610101  0.68254423  0.22672869  1.0
  P  P4926  1  0.38610101  0.80754423  0.22672869  1.0
  P  P4927  1  0.38610101  0.93254423  0.22672869  1.0
  P  P4928  1  0.49721212  0.05754423  0.22672869  1.0
  P  P4929  1  0.49721212  0.18254423  0.22672869  1.0
  P  P4930  1  0.49721212  0.30754423  0.22672869  1.0
  P  P4931  1  0.49721212  0.43254423  0.22672869  1.0
  P  P4932  1  0.49721212  0.55754423  0.22672869  1.0
  P  P4933  1  0.49721212  0.68254423  0.22672869  1.0
  P  P4934  1  0.49721212  0.80754423  0.22672869  1.0
  P  P4935  1  0.49721212  0.93254423  0.22672869  1.0
  P  P4936  1  0.60832323  0.05754423  0.22672869  1.0
  P  P4937  1  0.60832323  0.18254423  0.22672869  1.0
  P  P4938  1  0.60832323  0.30754423  0.22672869  1.0
  P  P4939  1  0.60832323  0.43254423  0.22672869  1.0
  P  P4940  1  0.60832323  0.55754423  0.22672869  1.0
  P  P4941  1  0.60832323  0.68254423  0.22672869  1.0
  P  P4942  1  0.60832323  0.80754423  0.22672869  1.0
  P  P4943  1  0.60832323  0.93254423  0.22672869  1.0
  P  P4944  1  0.71943434  0.05754423  0.22672869  1.0
  P  P4945  1  0.71943434  0.18254423  0.22672869  1.0
  P  P4946  1  0.71943434  0.30754423  0.22672869  1.0
  P  P4947  1  0.71943434  0.43254423  0.22672869  1.0
  P  P4948  1  0.71943434  0.55754423  0.22672869  1.0
  P  P4949  1  0.71943434  0.68254423  0.22672869  1.0
  P  P4950  1  0.71943434  0.80754423  0.22672869  1.0
  P  P4951  1  0.71943434  0.93254423  0.22672869  1.0
  P  P4952  1  0.83054545  0.05754423  0.22672869  1.0
  P  P4953  1  0.83054545  0.18254423  0.22672869  1.0
  P  P4954  1  0.83054545  0.30754423  0.22672869  1.0
  P  P4955  1  0.83054545  0.43254423  0.22672869  1.0
  P  P4956  1  0.83054545  0.55754423  0.22672869  1.0
  P  P4957  1  0.83054545  0.68254423  0.22672869  1.0
  P  P4958  1  0.83054545  0.80754423  0.22672869  1.0
  P  P4959  1  0.83054545  0.93254423  0.22672869  1.0
  P  P4960  1  0.94165656  0.05754423  0.22672869  1.0
  P  P4961  1  0.94165656  0.18254423  0.22672869  1.0
  P  P4962  1  0.94165656  0.30754423  0.22672869  1.0
  P  P4963  1  0.94165656  0.43254423  0.22672869  1.0
  P  P4964  1  0.94165656  0.55754423  0.22672869  1.0
  P  P4965  1  0.94165656  0.68254423  0.22672869  1.0
  P  P4966  1  0.94165656  0.80754423  0.22672869  1.0
  P  P4967  1  0.94165656  0.93254423  0.22672869  1.0
  P  P4968  1  0.10567773  0.05754423  0.32196679  1.0
  P  P4969  1  0.10567773  0.18254423  0.32196679  1.0
  P  P4970  1  0.10567773  0.30754423  0.32196679  1.0
  P  P4971  1  0.10567773  0.43254423  0.32196679  1.0
  P  P4972  1  0.10567773  0.55754423  0.32196679  1.0
  P  P4973  1  0.10567773  0.68254423  0.32196679  1.0
  P  P4974  1  0.10567773  0.80754423  0.32196679  1.0
  P  P4975  1  0.10567773  0.93254423  0.32196679  1.0
  P  P4976  1  0.21678884  0.05754423  0.32196679  1.0
  P  P4977  1  0.21678884  0.18254423  0.32196679  1.0
  P  P4978  1  0.21678884  0.30754423  0.32196679  1.0
  P  P4979  1  0.21678884  0.43254423  0.32196679  1.0
  P  P4980  1  0.21678884  0.55754423  0.32196679  1.0
  P  P4981  1  0.21678884  0.68254423  0.32196679  1.0
  P  P4982  1  0.21678884  0.80754423  0.32196679  1.0
  P  P4983  1  0.21678884  0.93254423  0.32196679  1.0
  P  P4984  1  0.32789995  0.05754423  0.32196679  1.0
  P  P4985  1  0.32789995  0.18254423  0.32196679  1.0
  P  P4986  1  0.32789995  0.30754423  0.32196679  1.0
  P  P4987  1  0.32789995  0.43254423  0.32196679  1.0
  P  P4988  1  0.32789995  0.55754423  0.32196679  1.0
  P  P4989  1  0.32789995  0.68254423  0.32196679  1.0
  P  P4990  1  0.32789995  0.80754423  0.32196679  1.0
  P  P4991  1  0.32789995  0.93254423  0.32196679  1.0
  P  P4992  1  0.43901106  0.05754423  0.32196679  1.0
  P  P4993  1  0.43901106  0.18254423  0.32196679  1.0
  P  P4994  1  0.43901106  0.30754423  0.32196679  1.0
  P  P4995  1  0.43901106  0.43254423  0.32196679  1.0
  P  P4996  1  0.43901106  0.55754423  0.32196679  1.0
  P  P4997  1  0.43901106  0.68254423  0.32196679  1.0
  P  P4998  1  0.43901106  0.80754423  0.32196679  1.0
  P  P4999  1  0.43901106  0.93254423  0.32196679  1.0
  P  P5000  1  0.55012217  0.05754423  0.32196679  1.0
  P  P5001  1  0.55012217  0.18254423  0.32196679  1.0
  P  P5002  1  0.55012217  0.30754423  0.32196679  1.0
  P  P5003  1  0.55012217  0.43254423  0.32196679  1.0
  P  P5004  1  0.55012217  0.55754423  0.32196679  1.0
  P  P5005  1  0.55012217  0.68254423  0.32196679  1.0
  P  P5006  1  0.55012217  0.80754423  0.32196679  1.0
  P  P5007  1  0.55012217  0.93254423  0.32196679  1.0
  P  P5008  1  0.66123328  0.05754423  0.32196679  1.0
  P  P5009  1  0.66123328  0.18254423  0.32196679  1.0
  P  P5010  1  0.66123328  0.30754423  0.32196679  1.0
  P  P5011  1  0.66123328  0.43254423  0.32196679  1.0
  P  P5012  1  0.66123328  0.55754423  0.32196679  1.0
  P  P5013  1  0.66123328  0.68254423  0.32196679  1.0
  P  P5014  1  0.66123328  0.80754423  0.32196679  1.0
  P  P5015  1  0.66123328  0.93254423  0.32196679  1.0
  P  P5016  1  0.77234439  0.05754423  0.32196679  1.0
  P  P5017  1  0.77234439  0.18254423  0.32196679  1.0
  P  P5018  1  0.77234439  0.30754423  0.32196679  1.0
  P  P5019  1  0.77234439  0.43254423  0.32196679  1.0
  P  P5020  1  0.77234439  0.55754423  0.32196679  1.0
  P  P5021  1  0.77234439  0.68254423  0.32196679  1.0
  P  P5022  1  0.77234439  0.80754423  0.32196679  1.0
  P  P5023  1  0.77234439  0.93254423  0.32196679  1.0
  P  P5024  1  0.88345550  0.05754423  0.32196679  1.0
  P  P5025  1  0.88345550  0.18254423  0.32196679  1.0
  P  P5026  1  0.88345550  0.30754423  0.32196679  1.0
  P  P5027  1  0.88345550  0.43254423  0.32196679  1.0
  P  P5028  1  0.88345550  0.55754423  0.32196679  1.0
  P  P5029  1  0.88345550  0.68254423  0.32196679  1.0
  P  P5030  1  0.88345550  0.80754423  0.32196679  1.0
  P  P5031  1  0.88345550  0.93254423  0.32196679  1.0
  P  P5032  1  0.99456661  0.05754423  0.32196679  1.0
  P  P5033  1  0.99456661  0.18254423  0.32196679  1.0
  P  P5034  1  0.99456661  0.30754423  0.32196679  1.0
  P  P5035  1  0.99456661  0.43254423  0.32196679  1.0
  P  P5036  1  0.99456661  0.55754423  0.32196679  1.0
  P  P5037  1  0.99456661  0.68254423  0.32196679  1.0
  P  P5038  1  0.99456661  0.80754423  0.32196679  1.0
  P  P5039  1  0.99456661  0.93254423  0.32196679  1.0
  P  P5040  1  0.05021863  0.10787809  0.41566253  1.0
  P  P5041  1  0.05021863  0.23287809  0.41566253  1.0
  P  P5042  1  0.05021863  0.35787809  0.41566253  1.0
  P  P5043  1  0.05021863  0.48287809  0.41566253  1.0
  P  P5044  1  0.05021863  0.60787809  0.41566253  1.0
  P  P5045  1  0.05021863  0.73287809  0.41566253  1.0
  P  P5046  1  0.05021863  0.85787809  0.41566253  1.0
  P  P5047  1  0.05021863  0.98287809  0.41566253  1.0
  P  P5048  1  0.16132974  0.10787809  0.41566253  1.0
  P  P5049  1  0.16132974  0.23287809  0.41566253  1.0
  P  P5050  1  0.16132974  0.35787809  0.41566253  1.0
  P  P5051  1  0.16132974  0.48287809  0.41566253  1.0
  P  P5052  1  0.16132974  0.60787809  0.41566253  1.0
  P  P5053  1  0.16132974  0.73287809  0.41566253  1.0
  P  P5054  1  0.16132974  0.85787809  0.41566253  1.0
  P  P5055  1  0.16132974  0.98287809  0.41566253  1.0
  P  P5056  1  0.27244085  0.10787809  0.41566253  1.0
  P  P5057  1  0.27244085  0.23287809  0.41566253  1.0
  P  P5058  1  0.27244085  0.35787809  0.41566253  1.0
  P  P5059  1  0.27244085  0.48287809  0.41566253  1.0
  P  P5060  1  0.27244085  0.60787809  0.41566253  1.0
  P  P5061  1  0.27244085  0.73287809  0.41566253  1.0
  P  P5062  1  0.27244085  0.85787809  0.41566253  1.0
  P  P5063  1  0.27244085  0.98287809  0.41566253  1.0
  P  P5064  1  0.38355196  0.10787809  0.41566253  1.0
  P  P5065  1  0.38355196  0.23287809  0.41566253  1.0
  P  P5066  1  0.38355196  0.35787809  0.41566253  1.0
  P  P5067  1  0.38355196  0.48287809  0.41566253  1.0
  P  P5068  1  0.38355196  0.60787809  0.41566253  1.0
  P  P5069  1  0.38355196  0.73287809  0.41566253  1.0
  P  P5070  1  0.38355196  0.85787809  0.41566253  1.0
  P  P5071  1  0.38355196  0.98287809  0.41566253  1.0
  P  P5072  1  0.49466308  0.10787809  0.41566253  1.0
  P  P5073  1  0.49466308  0.23287809  0.41566253  1.0
  P  P5074  1  0.49466308  0.35787809  0.41566253  1.0
  P  P5075  1  0.49466308  0.48287809  0.41566253  1.0
  P  P5076  1  0.49466308  0.60787809  0.41566253  1.0
  P  P5077  1  0.49466308  0.73287809  0.41566253  1.0
  P  P5078  1  0.49466308  0.85787809  0.41566253  1.0
  P  P5079  1  0.49466308  0.98287809  0.41566253  1.0
  P  P5080  1  0.60577419  0.10787809  0.41566253  1.0
  P  P5081  1  0.60577419  0.23287809  0.41566253  1.0
  P  P5082  1  0.60577419  0.35787809  0.41566253  1.0
  P  P5083  1  0.60577419  0.48287809  0.41566253  1.0
  P  P5084  1  0.60577419  0.60787809  0.41566253  1.0
  P  P5085  1  0.60577419  0.73287809  0.41566253  1.0
  P  P5086  1  0.60577419  0.85787809  0.41566253  1.0
  P  P5087  1  0.60577419  0.98287809  0.41566253  1.0
  P  P5088  1  0.71688530  0.10787809  0.41566253  1.0
  P  P5089  1  0.71688530  0.23287809  0.41566253  1.0
  P  P5090  1  0.71688530  0.35787809  0.41566253  1.0
  P  P5091  1  0.71688530  0.48287809  0.41566253  1.0
  P  P5092  1  0.71688530  0.60787809  0.41566253  1.0
  P  P5093  1  0.71688530  0.73287809  0.41566253  1.0
  P  P5094  1  0.71688530  0.85787809  0.41566253  1.0
  P  P5095  1  0.71688530  0.98287809  0.41566253  1.0
  P  P5096  1  0.82799641  0.10787809  0.41566253  1.0
  P  P5097  1  0.82799641  0.23287809  0.41566253  1.0
  P  P5098  1  0.82799641  0.35787809  0.41566253  1.0
  P  P5099  1  0.82799641  0.48287809  0.41566253  1.0
  P  P5100  1  0.82799641  0.60787809  0.41566253  1.0
  P  P5101  1  0.82799641  0.73287809  0.41566253  1.0
  P  P5102  1  0.82799641  0.85787809  0.41566253  1.0
  P  P5103  1  0.82799641  0.98287809  0.41566253  1.0
  P  P5104  1  0.93910752  0.10787809  0.41566253  1.0
  P  P5105  1  0.93910752  0.23287809  0.41566253  1.0
  P  P5106  1  0.93910752  0.35787809  0.41566253  1.0
  P  P5107  1  0.93910752  0.48287809  0.41566253  1.0
  P  P5108  1  0.93910752  0.60787809  0.41566253  1.0
  P  P5109  1  0.93910752  0.73287809  0.41566253  1.0
  P  P5110  1  0.93910752  0.85787809  0.41566253  1.0
  P  P5111  1  0.93910752  0.98287809  0.41566253  1.0
  P  P5112  1  0.02376360  0.10787809  0.36804348  1.0
  P  P5113  1  0.02376360  0.23287809  0.36804348  1.0
  P  P5114  1  0.02376360  0.35787809  0.36804348  1.0
  P  P5115  1  0.02376360  0.48287809  0.36804348  1.0
  P  P5116  1  0.02376360  0.60787809  0.36804348  1.0
  P  P5117  1  0.02376360  0.73287809  0.36804348  1.0
  P  P5118  1  0.02376360  0.85787809  0.36804348  1.0
  P  P5119  1  0.02376360  0.98287809  0.36804348  1.0
  P  P5120  1  0.13487472  0.10787809  0.36804348  1.0
  P  P5121  1  0.13487472  0.23287809  0.36804348  1.0
  P  P5122  1  0.13487472  0.35787809  0.36804348  1.0
  P  P5123  1  0.13487472  0.48287809  0.36804348  1.0
  P  P5124  1  0.13487472  0.60787809  0.36804348  1.0
  P  P5125  1  0.13487472  0.73287809  0.36804348  1.0
  P  P5126  1  0.13487472  0.85787809  0.36804348  1.0
  P  P5127  1  0.13487472  0.98287809  0.36804348  1.0
  P  P5128  1  0.24598583  0.10787809  0.36804348  1.0
  P  P5129  1  0.24598583  0.23287809  0.36804348  1.0
  P  P5130  1  0.24598583  0.35787809  0.36804348  1.0
  P  P5131  1  0.24598583  0.48287809  0.36804348  1.0
  P  P5132  1  0.24598583  0.60787809  0.36804348  1.0
  P  P5133  1  0.24598583  0.73287809  0.36804348  1.0
  P  P5134  1  0.24598583  0.85787809  0.36804348  1.0
  P  P5135  1  0.24598583  0.98287809  0.36804348  1.0
  P  P5136  1  0.35709694  0.10787809  0.36804348  1.0
  P  P5137  1  0.35709694  0.23287809  0.36804348  1.0
  P  P5138  1  0.35709694  0.35787809  0.36804348  1.0
  P  P5139  1  0.35709694  0.48287809  0.36804348  1.0
  P  P5140  1  0.35709694  0.60787809  0.36804348  1.0
  P  P5141  1  0.35709694  0.73287809  0.36804348  1.0
  P  P5142  1  0.35709694  0.85787809  0.36804348  1.0
  P  P5143  1  0.35709694  0.98287809  0.36804348  1.0
  P  P5144  1  0.46820805  0.10787809  0.36804348  1.0
  P  P5145  1  0.46820805  0.23287809  0.36804348  1.0
  P  P5146  1  0.46820805  0.35787809  0.36804348  1.0
  P  P5147  1  0.46820805  0.48287809  0.36804348  1.0
  P  P5148  1  0.46820805  0.60787809  0.36804348  1.0
  P  P5149  1  0.46820805  0.73287809  0.36804348  1.0
  P  P5150  1  0.46820805  0.85787809  0.36804348  1.0
  P  P5151  1  0.46820805  0.98287809  0.36804348  1.0
  P  P5152  1  0.57931916  0.10787809  0.36804348  1.0
  P  P5153  1  0.57931916  0.23287809  0.36804348  1.0
  P  P5154  1  0.57931916  0.35787809  0.36804348  1.0
  P  P5155  1  0.57931916  0.48287809  0.36804348  1.0
  P  P5156  1  0.57931916  0.60787809  0.36804348  1.0
  P  P5157  1  0.57931916  0.73287809  0.36804348  1.0
  P  P5158  1  0.57931916  0.85787809  0.36804348  1.0
  P  P5159  1  0.57931916  0.98287809  0.36804348  1.0
  P  P5160  1  0.69043027  0.10787809  0.36804348  1.0
  P  P5161  1  0.69043027  0.23287809  0.36804348  1.0
  P  P5162  1  0.69043027  0.35787809  0.36804348  1.0
  P  P5163  1  0.69043027  0.48287809  0.36804348  1.0
  P  P5164  1  0.69043027  0.60787809  0.36804348  1.0
  P  P5165  1  0.69043027  0.73287809  0.36804348  1.0
  P  P5166  1  0.69043027  0.85787809  0.36804348  1.0
  P  P5167  1  0.69043027  0.98287809  0.36804348  1.0
  P  P5168  1  0.80154138  0.10787809  0.36804348  1.0
  P  P5169  1  0.80154138  0.23287809  0.36804348  1.0
  P  P5170  1  0.80154138  0.35787809  0.36804348  1.0
  P  P5171  1  0.80154138  0.48287809  0.36804348  1.0
  P  P5172  1  0.80154138  0.60787809  0.36804348  1.0
  P  P5173  1  0.80154138  0.73287809  0.36804348  1.0
  P  P5174  1  0.80154138  0.85787809  0.36804348  1.0
  P  P5175  1  0.80154138  0.98287809  0.36804348  1.0
  P  P5176  1  0.91265249  0.10787809  0.36804348  1.0
  P  P5177  1  0.91265249  0.23287809  0.36804348  1.0
  P  P5178  1  0.91265249  0.35787809  0.36804348  1.0
  P  P5179  1  0.91265249  0.48287809  0.36804348  1.0
  P  P5180  1  0.91265249  0.60787809  0.36804348  1.0
  P  P5181  1  0.91265249  0.73287809  0.36804348  1.0
  P  P5182  1  0.91265249  0.85787809  0.36804348  1.0
  P  P5183  1  0.91265249  0.98287809  0.36804348  1.0
  P  P5184  1  0.07667366  0.10787809  0.46328157  1.0
  P  P5185  1  0.07667366  0.23287809  0.46328157  1.0
  P  P5186  1  0.07667366  0.35787809  0.46328157  1.0
  P  P5187  1  0.07667366  0.48287809  0.46328157  1.0
  P  P5188  1  0.07667366  0.60787809  0.46328157  1.0
  P  P5189  1  0.07667366  0.73287809  0.46328157  1.0
  P  P5190  1  0.07667366  0.85787809  0.46328157  1.0
  P  P5191  1  0.07667366  0.98287809  0.46328157  1.0
  P  P5192  1  0.18778477  0.10787809  0.46328157  1.0
  P  P5193  1  0.18778477  0.23287809  0.46328157  1.0
  P  P5194  1  0.18778477  0.35787809  0.46328157  1.0
  P  P5195  1  0.18778477  0.48287809  0.46328157  1.0
  P  P5196  1  0.18778477  0.60787809  0.46328157  1.0
  P  P5197  1  0.18778477  0.73287809  0.46328157  1.0
  P  P5198  1  0.18778477  0.85787809  0.46328157  1.0
  P  P5199  1  0.18778477  0.98287809  0.46328157  1.0
  P  P5200  1  0.29889588  0.10787809  0.46328157  1.0
  P  P5201  1  0.29889588  0.23287809  0.46328157  1.0
  P  P5202  1  0.29889588  0.35787809  0.46328157  1.0
  P  P5203  1  0.29889588  0.48287809  0.46328157  1.0
  P  P5204  1  0.29889588  0.60787809  0.46328157  1.0
  P  P5205  1  0.29889588  0.73287809  0.46328157  1.0
  P  P5206  1  0.29889588  0.85787809  0.46328157  1.0
  P  P5207  1  0.29889588  0.98287809  0.46328157  1.0
  P  P5208  1  0.41000699  0.10787809  0.46328157  1.0
  P  P5209  1  0.41000699  0.23287809  0.46328157  1.0
  P  P5210  1  0.41000699  0.35787809  0.46328157  1.0
  P  P5211  1  0.41000699  0.48287809  0.46328157  1.0
  P  P5212  1  0.41000699  0.60787809  0.46328157  1.0
  P  P5213  1  0.41000699  0.73287809  0.46328157  1.0
  P  P5214  1  0.41000699  0.85787809  0.46328157  1.0
  P  P5215  1  0.41000699  0.98287809  0.46328157  1.0
  P  P5216  1  0.52111810  0.10787809  0.46328157  1.0
  P  P5217  1  0.52111810  0.23287809  0.46328157  1.0
  P  P5218  1  0.52111810  0.35787809  0.46328157  1.0
  P  P5219  1  0.52111810  0.48287809  0.46328157  1.0
  P  P5220  1  0.52111810  0.60787809  0.46328157  1.0
  P  P5221  1  0.52111810  0.73287809  0.46328157  1.0
  P  P5222  1  0.52111810  0.85787809  0.46328157  1.0
  P  P5223  1  0.52111810  0.98287809  0.46328157  1.0
  P  P5224  1  0.63222921  0.10787809  0.46328157  1.0
  P  P5225  1  0.63222921  0.23287809  0.46328157  1.0
  P  P5226  1  0.63222921  0.35787809  0.46328157  1.0
  P  P5227  1  0.63222921  0.48287809  0.46328157  1.0
  P  P5228  1  0.63222921  0.60787809  0.46328157  1.0
  P  P5229  1  0.63222921  0.73287809  0.46328157  1.0
  P  P5230  1  0.63222921  0.85787809  0.46328157  1.0
  P  P5231  1  0.63222921  0.98287809  0.46328157  1.0
  P  P5232  1  0.74334032  0.10787809  0.46328157  1.0
  P  P5233  1  0.74334032  0.23287809  0.46328157  1.0
  P  P5234  1  0.74334032  0.35787809  0.46328157  1.0
  P  P5235  1  0.74334032  0.48287809  0.46328157  1.0
  P  P5236  1  0.74334032  0.60787809  0.46328157  1.0
  P  P5237  1  0.74334032  0.73287809  0.46328157  1.0
  P  P5238  1  0.74334032  0.85787809  0.46328157  1.0
  P  P5239  1  0.74334032  0.98287809  0.46328157  1.0
  P  P5240  1  0.85445144  0.10787809  0.46328157  1.0
  P  P5241  1  0.85445144  0.23287809  0.46328157  1.0
  P  P5242  1  0.85445144  0.35787809  0.46328157  1.0
  P  P5243  1  0.85445144  0.48287809  0.46328157  1.0
  P  P5244  1  0.85445144  0.60787809  0.46328157  1.0
  P  P5245  1  0.85445144  0.73287809  0.46328157  1.0
  P  P5246  1  0.85445144  0.85787809  0.46328157  1.0
  P  P5247  1  0.85445144  0.98287809  0.46328157  1.0
  P  P5248  1  0.96556255  0.10787809  0.46328157  1.0
  P  P5249  1  0.96556255  0.23287809  0.46328157  1.0
  P  P5250  1  0.96556255  0.35787809  0.46328157  1.0
  P  P5251  1  0.96556255  0.48287809  0.46328157  1.0
  P  P5252  1  0.96556255  0.60787809  0.46328157  1.0
  P  P5253  1  0.96556255  0.73287809  0.46328157  1.0
  P  P5254  1  0.96556255  0.85787809  0.46328157  1.0
  P  P5255  1  0.96556255  0.98287809  0.46328157  1.0
  P  P5256  1  0.05187119  0.01712191  0.38348296  1.0
  P  P5257  1  0.05187119  0.14212191  0.38348296  1.0
  P  P5258  1  0.05187119  0.26712191  0.38348296  1.0
  P  P5259  1  0.05187119  0.39212191  0.38348296  1.0
  P  P5260  1  0.05187119  0.51712191  0.38348296  1.0
  P  P5261  1  0.05187119  0.64212191  0.38348296  1.0
  P  P5262  1  0.05187119  0.76712191  0.38348296  1.0
  P  P5263  1  0.05187119  0.89212191  0.38348296  1.0
  P  P5264  1  0.16298230  0.01712191  0.38348296  1.0
  P  P5265  1  0.16298230  0.14212191  0.38348296  1.0
  P  P5266  1  0.16298230  0.26712191  0.38348296  1.0
  P  P5267  1  0.16298230  0.39212191  0.38348296  1.0
  P  P5268  1  0.16298230  0.51712191  0.38348296  1.0
  P  P5269  1  0.16298230  0.64212191  0.38348296  1.0
  P  P5270  1  0.16298230  0.76712191  0.38348296  1.0
  P  P5271  1  0.16298230  0.89212191  0.38348296  1.0
  P  P5272  1  0.27409341  0.01712191  0.38348296  1.0
  P  P5273  1  0.27409341  0.14212191  0.38348296  1.0
  P  P5274  1  0.27409341  0.26712191  0.38348296  1.0
  P  P5275  1  0.27409341  0.39212191  0.38348296  1.0
  P  P5276  1  0.27409341  0.51712191  0.38348296  1.0
  P  P5277  1  0.27409341  0.64212191  0.38348296  1.0
  P  P5278  1  0.27409341  0.76712191  0.38348296  1.0
  P  P5279  1  0.27409341  0.89212191  0.38348296  1.0
  P  P5280  1  0.38520453  0.01712191  0.38348296  1.0
  P  P5281  1  0.38520453  0.14212191  0.38348296  1.0
  P  P5282  1  0.38520453  0.26712191  0.38348296  1.0
  P  P5283  1  0.38520453  0.39212191  0.38348296  1.0
  P  P5284  1  0.38520453  0.51712191  0.38348296  1.0
  P  P5285  1  0.38520453  0.64212191  0.38348296  1.0
  P  P5286  1  0.38520453  0.76712191  0.38348296  1.0
  P  P5287  1  0.38520453  0.89212191  0.38348296  1.0
  P  P5288  1  0.49631564  0.01712191  0.38348296  1.0
  P  P5289  1  0.49631564  0.14212191  0.38348296  1.0
  P  P5290  1  0.49631564  0.26712191  0.38348296  1.0
  P  P5291  1  0.49631564  0.39212191  0.38348296  1.0
  P  P5292  1  0.49631564  0.51712191  0.38348296  1.0
  P  P5293  1  0.49631564  0.64212191  0.38348296  1.0
  P  P5294  1  0.49631564  0.76712191  0.38348296  1.0
  P  P5295  1  0.49631564  0.89212191  0.38348296  1.0
  P  P5296  1  0.60742675  0.01712191  0.38348296  1.0
  P  P5297  1  0.60742675  0.14212191  0.38348296  1.0
  P  P5298  1  0.60742675  0.26712191  0.38348296  1.0
  P  P5299  1  0.60742675  0.39212191  0.38348296  1.0
  P  P5300  1  0.60742675  0.51712191  0.38348296  1.0
  P  P5301  1  0.60742675  0.64212191  0.38348296  1.0
  P  P5302  1  0.60742675  0.76712191  0.38348296  1.0
  P  P5303  1  0.60742675  0.89212191  0.38348296  1.0
  P  P5304  1  0.71853786  0.01712191  0.38348296  1.0
  P  P5305  1  0.71853786  0.14212191  0.38348296  1.0
  P  P5306  1  0.71853786  0.26712191  0.38348296  1.0
  P  P5307  1  0.71853786  0.39212191  0.38348296  1.0
  P  P5308  1  0.71853786  0.51712191  0.38348296  1.0
  P  P5309  1  0.71853786  0.64212191  0.38348296  1.0
  P  P5310  1  0.71853786  0.76712191  0.38348296  1.0
  P  P5311  1  0.71853786  0.89212191  0.38348296  1.0
  P  P5312  1  0.82964897  0.01712191  0.38348296  1.0
  P  P5313  1  0.82964897  0.14212191  0.38348296  1.0
  P  P5314  1  0.82964897  0.26712191  0.38348296  1.0
  P  P5315  1  0.82964897  0.39212191  0.38348296  1.0
  P  P5316  1  0.82964897  0.51712191  0.38348296  1.0
  P  P5317  1  0.82964897  0.64212191  0.38348296  1.0
  P  P5318  1  0.82964897  0.76712191  0.38348296  1.0
  P  P5319  1  0.82964897  0.89212191  0.38348296  1.0
  P  P5320  1  0.94076008  0.01712191  0.38348296  1.0
  P  P5321  1  0.94076008  0.14212191  0.38348296  1.0
  P  P5322  1  0.94076008  0.26712191  0.38348296  1.0
  P  P5323  1  0.94076008  0.39212191  0.38348296  1.0
  P  P5324  1  0.94076008  0.51712191  0.38348296  1.0
  P  P5325  1  0.94076008  0.64212191  0.38348296  1.0
  P  P5326  1  0.94076008  0.76712191  0.38348296  1.0
  P  P5327  1  0.94076008  0.89212191  0.38348296  1.0
  P  P5328  1  0.10478125  0.01712191  0.47872106  1.0
  P  P5329  1  0.10478125  0.14212191  0.47872106  1.0
  P  P5330  1  0.10478125  0.26712191  0.47872106  1.0
  P  P5331  1  0.10478125  0.39212191  0.47872106  1.0
  P  P5332  1  0.10478125  0.51712191  0.47872106  1.0
  P  P5333  1  0.10478125  0.64212191  0.47872106  1.0
  P  P5334  1  0.10478125  0.76712191  0.47872106  1.0
  P  P5335  1  0.10478125  0.89212191  0.47872106  1.0
  P  P5336  1  0.21589236  0.01712191  0.47872106  1.0
  P  P5337  1  0.21589236  0.14212191  0.47872106  1.0
  P  P5338  1  0.21589236  0.26712191  0.47872106  1.0
  P  P5339  1  0.21589236  0.39212191  0.47872106  1.0
  P  P5340  1  0.21589236  0.51712191  0.47872106  1.0
  P  P5341  1  0.21589236  0.64212191  0.47872106  1.0
  P  P5342  1  0.21589236  0.76712191  0.47872106  1.0
  P  P5343  1  0.21589236  0.89212191  0.47872106  1.0
  P  P5344  1  0.32700347  0.01712191  0.47872106  1.0
  P  P5345  1  0.32700347  0.14212191  0.47872106  1.0
  P  P5346  1  0.32700347  0.26712191  0.47872106  1.0
  P  P5347  1  0.32700347  0.39212191  0.47872106  1.0
  P  P5348  1  0.32700347  0.51712191  0.47872106  1.0
  P  P5349  1  0.32700347  0.64212191  0.47872106  1.0
  P  P5350  1  0.32700347  0.76712191  0.47872106  1.0
  P  P5351  1  0.32700347  0.89212191  0.47872106  1.0
  P  P5352  1  0.43811458  0.01712191  0.47872106  1.0
  P  P5353  1  0.43811458  0.14212191  0.47872106  1.0
  P  P5354  1  0.43811458  0.26712191  0.47872106  1.0
  P  P5355  1  0.43811458  0.39212191  0.47872106  1.0
  P  P5356  1  0.43811458  0.51712191  0.47872106  1.0
  P  P5357  1  0.43811458  0.64212191  0.47872106  1.0
  P  P5358  1  0.43811458  0.76712191  0.47872106  1.0
  P  P5359  1  0.43811458  0.89212191  0.47872106  1.0
  P  P5360  1  0.54922569  0.01712191  0.47872106  1.0
  P  P5361  1  0.54922569  0.14212191  0.47872106  1.0
  P  P5362  1  0.54922569  0.26712191  0.47872106  1.0
  P  P5363  1  0.54922569  0.39212191  0.47872106  1.0
  P  P5364  1  0.54922569  0.51712191  0.47872106  1.0
  P  P5365  1  0.54922569  0.64212191  0.47872106  1.0
  P  P5366  1  0.54922569  0.76712191  0.47872106  1.0
  P  P5367  1  0.54922569  0.89212191  0.47872106  1.0
  P  P5368  1  0.66033680  0.01712191  0.47872106  1.0
  P  P5369  1  0.66033680  0.14212191  0.47872106  1.0
  P  P5370  1  0.66033680  0.26712191  0.47872106  1.0
  P  P5371  1  0.66033680  0.39212191  0.47872106  1.0
  P  P5372  1  0.66033680  0.51712191  0.47872106  1.0
  P  P5373  1  0.66033680  0.64212191  0.47872106  1.0
  P  P5374  1  0.66033680  0.76712191  0.47872106  1.0
  P  P5375  1  0.66033680  0.89212191  0.47872106  1.0
  P  P5376  1  0.77144791  0.01712191  0.47872106  1.0
  P  P5377  1  0.77144791  0.14212191  0.47872106  1.0
  P  P5378  1  0.77144791  0.26712191  0.47872106  1.0
  P  P5379  1  0.77144791  0.39212191  0.47872106  1.0
  P  P5380  1  0.77144791  0.51712191  0.47872106  1.0
  P  P5381  1  0.77144791  0.64212191  0.47872106  1.0
  P  P5382  1  0.77144791  0.76712191  0.47872106  1.0
  P  P5383  1  0.77144791  0.89212191  0.47872106  1.0
  P  P5384  1  0.88255902  0.01712191  0.47872106  1.0
  P  P5385  1  0.88255902  0.14212191  0.47872106  1.0
  P  P5386  1  0.88255902  0.26712191  0.47872106  1.0
  P  P5387  1  0.88255902  0.39212191  0.47872106  1.0
  P  P5388  1  0.88255902  0.51712191  0.47872106  1.0
  P  P5389  1  0.88255902  0.64212191  0.47872106  1.0
  P  P5390  1  0.88255902  0.76712191  0.47872106  1.0
  P  P5391  1  0.88255902  0.89212191  0.47872106  1.0
  P  P5392  1  0.99367013  0.01712191  0.47872106  1.0
  P  P5393  1  0.99367013  0.14212191  0.47872106  1.0
  P  P5394  1  0.99367013  0.26712191  0.47872106  1.0
  P  P5395  1  0.99367013  0.39212191  0.47872106  1.0
  P  P5396  1  0.99367013  0.51712191  0.47872106  1.0
  P  P5397  1  0.99367013  0.64212191  0.47872106  1.0
  P  P5398  1  0.99367013  0.76712191  0.47872106  1.0
  P  P5399  1  0.99367013  0.89212191  0.47872106  1.0
  P  P5400  1  0.07832622  0.01712191  0.43110201  1.0
  P  P5401  1  0.07832622  0.14212191  0.43110201  1.0
  P  P5402  1  0.07832622  0.26712191  0.43110201  1.0
  P  P5403  1  0.07832622  0.39212191  0.43110201  1.0
  P  P5404  1  0.07832622  0.51712191  0.43110201  1.0
  P  P5405  1  0.07832622  0.64212191  0.43110201  1.0
  P  P5406  1  0.07832622  0.76712191  0.43110201  1.0
  P  P5407  1  0.07832622  0.89212191  0.43110201  1.0
  P  P5408  1  0.18943733  0.01712191  0.43110201  1.0
  P  P5409  1  0.18943733  0.14212191  0.43110201  1.0
  P  P5410  1  0.18943733  0.26712191  0.43110201  1.0
  P  P5411  1  0.18943733  0.39212191  0.43110201  1.0
  P  P5412  1  0.18943733  0.51712191  0.43110201  1.0
  P  P5413  1  0.18943733  0.64212191  0.43110201  1.0
  P  P5414  1  0.18943733  0.76712191  0.43110201  1.0
  P  P5415  1  0.18943733  0.89212191  0.43110201  1.0
  P  P5416  1  0.30054844  0.01712191  0.43110201  1.0
  P  P5417  1  0.30054844  0.14212191  0.43110201  1.0
  P  P5418  1  0.30054844  0.26712191  0.43110201  1.0
  P  P5419  1  0.30054844  0.39212191  0.43110201  1.0
  P  P5420  1  0.30054844  0.51712191  0.43110201  1.0
  P  P5421  1  0.30054844  0.64212191  0.43110201  1.0
  P  P5422  1  0.30054844  0.76712191  0.43110201  1.0
  P  P5423  1  0.30054844  0.89212191  0.43110201  1.0
  P  P5424  1  0.41165955  0.01712191  0.43110201  1.0
  P  P5425  1  0.41165955  0.14212191  0.43110201  1.0
  P  P5426  1  0.41165955  0.26712191  0.43110201  1.0
  P  P5427  1  0.41165955  0.39212191  0.43110201  1.0
  P  P5428  1  0.41165955  0.51712191  0.43110201  1.0
  P  P5429  1  0.41165955  0.64212191  0.43110201  1.0
  P  P5430  1  0.41165955  0.76712191  0.43110201  1.0
  P  P5431  1  0.41165955  0.89212191  0.43110201  1.0
  P  P5432  1  0.52277066  0.01712191  0.43110201  1.0
  P  P5433  1  0.52277066  0.14212191  0.43110201  1.0
  P  P5434  1  0.52277066  0.26712191  0.43110201  1.0
  P  P5435  1  0.52277066  0.39212191  0.43110201  1.0
  P  P5436  1  0.52277066  0.51712191  0.43110201  1.0
  P  P5437  1  0.52277066  0.64212191  0.43110201  1.0
  P  P5438  1  0.52277066  0.76712191  0.43110201  1.0
  P  P5439  1  0.52277066  0.89212191  0.43110201  1.0
  P  P5440  1  0.63388177  0.01712191  0.43110201  1.0
  P  P5441  1  0.63388177  0.14212191  0.43110201  1.0
  P  P5442  1  0.63388177  0.26712191  0.43110201  1.0
  P  P5443  1  0.63388177  0.39212191  0.43110201  1.0
  P  P5444  1  0.63388177  0.51712191  0.43110201  1.0
  P  P5445  1  0.63388177  0.64212191  0.43110201  1.0
  P  P5446  1  0.63388177  0.76712191  0.43110201  1.0
  P  P5447  1  0.63388177  0.89212191  0.43110201  1.0
  P  P5448  1  0.74499289  0.01712191  0.43110201  1.0
  P  P5449  1  0.74499289  0.14212191  0.43110201  1.0
  P  P5450  1  0.74499289  0.26712191  0.43110201  1.0
  P  P5451  1  0.74499289  0.39212191  0.43110201  1.0
  P  P5452  1  0.74499289  0.51712191  0.43110201  1.0
  P  P5453  1  0.74499289  0.64212191  0.43110201  1.0
  P  P5454  1  0.74499289  0.76712191  0.43110201  1.0
  P  P5455  1  0.74499289  0.89212191  0.43110201  1.0
  P  P5456  1  0.85610400  0.01712191  0.43110201  1.0
  P  P5457  1  0.85610400  0.14212191  0.43110201  1.0
  P  P5458  1  0.85610400  0.26712191  0.43110201  1.0
  P  P5459  1  0.85610400  0.39212191  0.43110201  1.0
  P  P5460  1  0.85610400  0.51712191  0.43110201  1.0
  P  P5461  1  0.85610400  0.64212191  0.43110201  1.0
  P  P5462  1  0.85610400  0.76712191  0.43110201  1.0
  P  P5463  1  0.85610400  0.89212191  0.43110201  1.0
  P  P5464  1  0.96721511  0.01712191  0.43110201  1.0
  P  P5465  1  0.96721511  0.14212191  0.43110201  1.0
  P  P5466  1  0.96721511  0.26712191  0.43110201  1.0
  P  P5467  1  0.96721511  0.39212191  0.43110201  1.0
  P  P5468  1  0.96721511  0.51712191  0.43110201  1.0
  P  P5469  1  0.96721511  0.64212191  0.43110201  1.0
  P  P5470  1  0.96721511  0.76712191  0.43110201  1.0
  P  P5471  1  0.96721511  0.89212191  0.43110201  1.0
  P  P5472  1  0.09254667  0.07962191  0.39185300  1.0
  P  P5473  1  0.09254667  0.20462191  0.39185300  1.0
  P  P5474  1  0.09254667  0.32962191  0.39185300  1.0
  P  P5475  1  0.09254667  0.45462191  0.39185300  1.0
  P  P5476  1  0.09254667  0.57962191  0.39185300  1.0
  P  P5477  1  0.09254667  0.70462191  0.39185300  1.0
  P  P5478  1  0.09254667  0.82962191  0.39185300  1.0
  P  P5479  1  0.09254667  0.95462191  0.39185300  1.0
  P  P5480  1  0.20365778  0.07962191  0.39185300  1.0
  P  P5481  1  0.20365778  0.20462191  0.39185300  1.0
  P  P5482  1  0.20365778  0.32962191  0.39185300  1.0
  P  P5483  1  0.20365778  0.45462191  0.39185300  1.0
  P  P5484  1  0.20365778  0.57962191  0.39185300  1.0
  P  P5485  1  0.20365778  0.70462191  0.39185300  1.0
  P  P5486  1  0.20365778  0.82962191  0.39185300  1.0
  P  P5487  1  0.20365778  0.95462191  0.39185300  1.0
  P  P5488  1  0.31476890  0.07962191  0.39185300  1.0
  P  P5489  1  0.31476890  0.20462191  0.39185300  1.0
  P  P5490  1  0.31476890  0.32962191  0.39185300  1.0
  P  P5491  1  0.31476890  0.45462191  0.39185300  1.0
  P  P5492  1  0.31476890  0.57962191  0.39185300  1.0
  P  P5493  1  0.31476890  0.70462191  0.39185300  1.0
  P  P5494  1  0.31476890  0.82962191  0.39185300  1.0
  P  P5495  1  0.31476890  0.95462191  0.39185300  1.0
  P  P5496  1  0.42588001  0.07962191  0.39185300  1.0
  P  P5497  1  0.42588001  0.20462191  0.39185300  1.0
  P  P5498  1  0.42588001  0.32962191  0.39185300  1.0
  P  P5499  1  0.42588001  0.45462191  0.39185300  1.0
  P  P5500  1  0.42588001  0.57962191  0.39185300  1.0
  P  P5501  1  0.42588001  0.70462191  0.39185300  1.0
  P  P5502  1  0.42588001  0.82962191  0.39185300  1.0
  P  P5503  1  0.42588001  0.95462191  0.39185300  1.0
  P  P5504  1  0.53699112  0.07962191  0.39185300  1.0
  P  P5505  1  0.53699112  0.20462191  0.39185300  1.0
  P  P5506  1  0.53699112  0.32962191  0.39185300  1.0
  P  P5507  1  0.53699112  0.45462191  0.39185300  1.0
  P  P5508  1  0.53699112  0.57962191  0.39185300  1.0
  P  P5509  1  0.53699112  0.70462191  0.39185300  1.0
  P  P5510  1  0.53699112  0.82962191  0.39185300  1.0
  P  P5511  1  0.53699112  0.95462191  0.39185300  1.0
  P  P5512  1  0.64810223  0.07962191  0.39185300  1.0
  P  P5513  1  0.64810223  0.20462191  0.39185300  1.0
  P  P5514  1  0.64810223  0.32962191  0.39185300  1.0
  P  P5515  1  0.64810223  0.45462191  0.39185300  1.0
  P  P5516  1  0.64810223  0.57962191  0.39185300  1.0
  P  P5517  1  0.64810223  0.70462191  0.39185300  1.0
  P  P5518  1  0.64810223  0.82962191  0.39185300  1.0
  P  P5519  1  0.64810223  0.95462191  0.39185300  1.0
  P  P5520  1  0.75921334  0.07962191  0.39185300  1.0
  P  P5521  1  0.75921334  0.20462191  0.39185300  1.0
  P  P5522  1  0.75921334  0.32962191  0.39185300  1.0
  P  P5523  1  0.75921334  0.45462191  0.39185300  1.0
  P  P5524  1  0.75921334  0.57962191  0.39185300  1.0
  P  P5525  1  0.75921334  0.70462191  0.39185300  1.0
  P  P5526  1  0.75921334  0.82962191  0.39185300  1.0
  P  P5527  1  0.75921334  0.95462191  0.39185300  1.0
  P  P5528  1  0.87032445  0.07962191  0.39185300  1.0
  P  P5529  1  0.87032445  0.20462191  0.39185300  1.0
  P  P5530  1  0.87032445  0.32962191  0.39185300  1.0
  P  P5531  1  0.87032445  0.45462191  0.39185300  1.0
  P  P5532  1  0.87032445  0.57962191  0.39185300  1.0
  P  P5533  1  0.87032445  0.70462191  0.39185300  1.0
  P  P5534  1  0.87032445  0.82962191  0.39185300  1.0
  P  P5535  1  0.87032445  0.95462191  0.39185300  1.0
  P  P5536  1  0.98143556  0.07962191  0.39185300  1.0
  P  P5537  1  0.98143556  0.20462191  0.39185300  1.0
  P  P5538  1  0.98143556  0.32962191  0.39185300  1.0
  P  P5539  1  0.98143556  0.45462191  0.39185300  1.0
  P  P5540  1  0.98143556  0.57962191  0.39185300  1.0
  P  P5541  1  0.98143556  0.70462191  0.39185300  1.0
  P  P5542  1  0.98143556  0.82962191  0.39185300  1.0
  P  P5543  1  0.98143556  0.95462191  0.39185300  1.0
  P  P5544  1  0.03434562  0.07962191  0.48709110  1.0
  P  P5545  1  0.03434562  0.20462191  0.48709110  1.0
  P  P5546  1  0.03434562  0.32962191  0.48709110  1.0
  P  P5547  1  0.03434562  0.45462191  0.48709110  1.0
  P  P5548  1  0.03434562  0.57962191  0.48709110  1.0
  P  P5549  1  0.03434562  0.70462191  0.48709110  1.0
  P  P5550  1  0.03434562  0.82962191  0.48709110  1.0
  P  P5551  1  0.03434562  0.95462191  0.48709110  1.0
  P  P5552  1  0.14545673  0.07962191  0.48709110  1.0
  P  P5553  1  0.14545673  0.20462191  0.48709110  1.0
  P  P5554  1  0.14545673  0.32962191  0.48709110  1.0
  P  P5555  1  0.14545673  0.45462191  0.48709110  1.0
  P  P5556  1  0.14545673  0.57962191  0.48709110  1.0
  P  P5557  1  0.14545673  0.70462191  0.48709110  1.0
  P  P5558  1  0.14545673  0.82962191  0.48709110  1.0
  P  P5559  1  0.14545673  0.95462191  0.48709110  1.0
  P  P5560  1  0.25656784  0.07962191  0.48709110  1.0
  P  P5561  1  0.25656784  0.20462191  0.48709110  1.0
  P  P5562  1  0.25656784  0.32962191  0.48709110  1.0
  P  P5563  1  0.25656784  0.45462191  0.48709110  1.0
  P  P5564  1  0.25656784  0.57962191  0.48709110  1.0
  P  P5565  1  0.25656784  0.70462191  0.48709110  1.0
  P  P5566  1  0.25656784  0.82962191  0.48709110  1.0
  P  P5567  1  0.25656784  0.95462191  0.48709110  1.0
  P  P5568  1  0.36767895  0.07962191  0.48709110  1.0
  P  P5569  1  0.36767895  0.20462191  0.48709110  1.0
  P  P5570  1  0.36767895  0.32962191  0.48709110  1.0
  P  P5571  1  0.36767895  0.45462191  0.48709110  1.0
  P  P5572  1  0.36767895  0.57962191  0.48709110  1.0
  P  P5573  1  0.36767895  0.70462191  0.48709110  1.0
  P  P5574  1  0.36767895  0.82962191  0.48709110  1.0
  P  P5575  1  0.36767895  0.95462191  0.48709110  1.0
  P  P5576  1  0.47879006  0.07962191  0.48709110  1.0
  P  P5577  1  0.47879006  0.20462191  0.48709110  1.0
  P  P5578  1  0.47879006  0.32962191  0.48709110  1.0
  P  P5579  1  0.47879006  0.45462191  0.48709110  1.0
  P  P5580  1  0.47879006  0.57962191  0.48709110  1.0
  P  P5581  1  0.47879006  0.70462191  0.48709110  1.0
  P  P5582  1  0.47879006  0.82962191  0.48709110  1.0
  P  P5583  1  0.47879006  0.95462191  0.48709110  1.0
  P  P5584  1  0.58990117  0.07962191  0.48709110  1.0
  P  P5585  1  0.58990117  0.20462191  0.48709110  1.0
  P  P5586  1  0.58990117  0.32962191  0.48709110  1.0
  P  P5587  1  0.58990117  0.45462191  0.48709110  1.0
  P  P5588  1  0.58990117  0.57962191  0.48709110  1.0
  P  P5589  1  0.58990117  0.70462191  0.48709110  1.0
  P  P5590  1  0.58990117  0.82962191  0.48709110  1.0
  P  P5591  1  0.58990117  0.95462191  0.48709110  1.0
  P  P5592  1  0.70101228  0.07962191  0.48709110  1.0
  P  P5593  1  0.70101228  0.20462191  0.48709110  1.0
  P  P5594  1  0.70101228  0.32962191  0.48709110  1.0
  P  P5595  1  0.70101228  0.45462191  0.48709110  1.0
  P  P5596  1  0.70101228  0.57962191  0.48709110  1.0
  P  P5597  1  0.70101228  0.70462191  0.48709110  1.0
  P  P5598  1  0.70101228  0.82962191  0.48709110  1.0
  P  P5599  1  0.70101228  0.95462191  0.48709110  1.0
  P  P5600  1  0.81212339  0.07962191  0.48709110  1.0
  P  P5601  1  0.81212339  0.20462191  0.48709110  1.0
  P  P5602  1  0.81212339  0.32962191  0.48709110  1.0
  P  P5603  1  0.81212339  0.45462191  0.48709110  1.0
  P  P5604  1  0.81212339  0.57962191  0.48709110  1.0
  P  P5605  1  0.81212339  0.70462191  0.48709110  1.0
  P  P5606  1  0.81212339  0.82962191  0.48709110  1.0
  P  P5607  1  0.81212339  0.95462191  0.48709110  1.0
  P  P5608  1  0.92323450  0.07962191  0.48709110  1.0
  P  P5609  1  0.92323450  0.20462191  0.48709110  1.0
  P  P5610  1  0.92323450  0.32962191  0.48709110  1.0
  P  P5611  1  0.92323450  0.45462191  0.48709110  1.0
  P  P5612  1  0.92323450  0.57962191  0.48709110  1.0
  P  P5613  1  0.92323450  0.70462191  0.48709110  1.0
  P  P5614  1  0.92323450  0.82962191  0.48709110  1.0
  P  P5615  1  0.92323450  0.95462191  0.48709110  1.0
  P  P5616  1  0.00789059  0.07962191  0.43947205  1.0
  P  P5617  1  0.00789059  0.20462191  0.43947205  1.0
  P  P5618  1  0.00789059  0.32962191  0.43947205  1.0
  P  P5619  1  0.00789059  0.45462191  0.43947205  1.0
  P  P5620  1  0.00789059  0.57962191  0.43947205  1.0
  P  P5621  1  0.00789059  0.70462191  0.43947205  1.0
  P  P5622  1  0.00789059  0.82962191  0.43947205  1.0
  P  P5623  1  0.00789059  0.95462191  0.43947205  1.0
  P  P5624  1  0.11900170  0.07962191  0.43947205  1.0
  P  P5625  1  0.11900170  0.20462191  0.43947205  1.0
  P  P5626  1  0.11900170  0.32962191  0.43947205  1.0
  P  P5627  1  0.11900170  0.45462191  0.43947205  1.0
  P  P5628  1  0.11900170  0.57962191  0.43947205  1.0
  P  P5629  1  0.11900170  0.70462191  0.43947205  1.0
  P  P5630  1  0.11900170  0.82962191  0.43947205  1.0
  P  P5631  1  0.11900170  0.95462191  0.43947205  1.0
  P  P5632  1  0.23011281  0.07962191  0.43947205  1.0
  P  P5633  1  0.23011281  0.20462191  0.43947205  1.0
  P  P5634  1  0.23011281  0.32962191  0.43947205  1.0
  P  P5635  1  0.23011281  0.45462191  0.43947205  1.0
  P  P5636  1  0.23011281  0.57962191  0.43947205  1.0
  P  P5637  1  0.23011281  0.70462191  0.43947205  1.0
  P  P5638  1  0.23011281  0.82962191  0.43947205  1.0
  P  P5639  1  0.23011281  0.95462191  0.43947205  1.0
  P  P5640  1  0.34122392  0.07962191  0.43947205  1.0
  P  P5641  1  0.34122392  0.20462191  0.43947205  1.0
  P  P5642  1  0.34122392  0.32962191  0.43947205  1.0
  P  P5643  1  0.34122392  0.45462191  0.43947205  1.0
  P  P5644  1  0.34122392  0.57962191  0.43947205  1.0
  P  P5645  1  0.34122392  0.70462191  0.43947205  1.0
  P  P5646  1  0.34122392  0.82962191  0.43947205  1.0
  P  P5647  1  0.34122392  0.95462191  0.43947205  1.0
  P  P5648  1  0.45233503  0.07962191  0.43947205  1.0
  P  P5649  1  0.45233503  0.20462191  0.43947205  1.0
  P  P5650  1  0.45233503  0.32962191  0.43947205  1.0
  P  P5651  1  0.45233503  0.45462191  0.43947205  1.0
  P  P5652  1  0.45233503  0.57962191  0.43947205  1.0
  P  P5653  1  0.45233503  0.70462191  0.43947205  1.0
  P  P5654  1  0.45233503  0.82962191  0.43947205  1.0
  P  P5655  1  0.45233503  0.95462191  0.43947205  1.0
  P  P5656  1  0.56344614  0.07962191  0.43947205  1.0
  P  P5657  1  0.56344614  0.20462191  0.43947205  1.0
  P  P5658  1  0.56344614  0.32962191  0.43947205  1.0
  P  P5659  1  0.56344614  0.45462191  0.43947205  1.0
  P  P5660  1  0.56344614  0.57962191  0.43947205  1.0
  P  P5661  1  0.56344614  0.70462191  0.43947205  1.0
  P  P5662  1  0.56344614  0.82962191  0.43947205  1.0
  P  P5663  1  0.56344614  0.95462191  0.43947205  1.0
  P  P5664  1  0.67455726  0.07962191  0.43947205  1.0
  P  P5665  1  0.67455726  0.20462191  0.43947205  1.0
  P  P5666  1  0.67455726  0.32962191  0.43947205  1.0
  P  P5667  1  0.67455726  0.45462191  0.43947205  1.0
  P  P5668  1  0.67455726  0.57962191  0.43947205  1.0
  P  P5669  1  0.67455726  0.70462191  0.43947205  1.0
  P  P5670  1  0.67455726  0.82962191  0.43947205  1.0
  P  P5671  1  0.67455726  0.95462191  0.43947205  1.0
  P  P5672  1  0.78566837  0.07962191  0.43947205  1.0
  P  P5673  1  0.78566837  0.20462191  0.43947205  1.0
  P  P5674  1  0.78566837  0.32962191  0.43947205  1.0
  P  P5675  1  0.78566837  0.45462191  0.43947205  1.0
  P  P5676  1  0.78566837  0.57962191  0.43947205  1.0
  P  P5677  1  0.78566837  0.70462191  0.43947205  1.0
  P  P5678  1  0.78566837  0.82962191  0.43947205  1.0
  P  P5679  1  0.78566837  0.95462191  0.43947205  1.0
  P  P5680  1  0.89677948  0.07962191  0.43947205  1.0
  P  P5681  1  0.89677948  0.20462191  0.43947205  1.0
  P  P5682  1  0.89677948  0.32962191  0.43947205  1.0
  P  P5683  1  0.89677948  0.45462191  0.43947205  1.0
  P  P5684  1  0.89677948  0.57962191  0.43947205  1.0
  P  P5685  1  0.89677948  0.70462191  0.43947205  1.0
  P  P5686  1  0.89677948  0.82962191  0.43947205  1.0
  P  P5687  1  0.89677948  0.95462191  0.43947205  1.0
  P  P5688  1  0.00954315  0.04537809  0.40729248  1.0
  P  P5689  1  0.00954315  0.17037809  0.40729248  1.0
  P  P5690  1  0.00954315  0.29537809  0.40729248  1.0
  P  P5691  1  0.00954315  0.42037809  0.40729248  1.0
  P  P5692  1  0.00954315  0.54537809  0.40729248  1.0
  P  P5693  1  0.00954315  0.67037809  0.40729248  1.0
  P  P5694  1  0.00954315  0.79537809  0.40729248  1.0
  P  P5695  1  0.00954315  0.92037809  0.40729248  1.0
  P  P5696  1  0.12065426  0.04537809  0.40729248  1.0
  P  P5697  1  0.12065426  0.17037809  0.40729248  1.0
  P  P5698  1  0.12065426  0.29537809  0.40729248  1.0
  P  P5699  1  0.12065426  0.42037809  0.40729248  1.0
  P  P5700  1  0.12065426  0.54537809  0.40729248  1.0
  P  P5701  1  0.12065426  0.67037809  0.40729248  1.0
  P  P5702  1  0.12065426  0.79537809  0.40729248  1.0
  P  P5703  1  0.12065426  0.92037809  0.40729248  1.0
  P  P5704  1  0.23176537  0.04537809  0.40729248  1.0
  P  P5705  1  0.23176537  0.17037809  0.40729248  1.0
  P  P5706  1  0.23176537  0.29537809  0.40729248  1.0
  P  P5707  1  0.23176537  0.42037809  0.40729248  1.0
  P  P5708  1  0.23176537  0.54537809  0.40729248  1.0
  P  P5709  1  0.23176537  0.67037809  0.40729248  1.0
  P  P5710  1  0.23176537  0.79537809  0.40729248  1.0
  P  P5711  1  0.23176537  0.92037809  0.40729248  1.0
  P  P5712  1  0.34287648  0.04537809  0.40729248  1.0
  P  P5713  1  0.34287648  0.17037809  0.40729248  1.0
  P  P5714  1  0.34287648  0.29537809  0.40729248  1.0
  P  P5715  1  0.34287648  0.42037809  0.40729248  1.0
  P  P5716  1  0.34287648  0.54537809  0.40729248  1.0
  P  P5717  1  0.34287648  0.67037809  0.40729248  1.0
  P  P5718  1  0.34287648  0.79537809  0.40729248  1.0
  P  P5719  1  0.34287648  0.92037809  0.40729248  1.0
  P  P5720  1  0.45398759  0.04537809  0.40729248  1.0
  P  P5721  1  0.45398759  0.17037809  0.40729248  1.0
  P  P5722  1  0.45398759  0.29537809  0.40729248  1.0
  P  P5723  1  0.45398759  0.42037809  0.40729248  1.0
  P  P5724  1  0.45398759  0.54537809  0.40729248  1.0
  P  P5725  1  0.45398759  0.67037809  0.40729248  1.0
  P  P5726  1  0.45398759  0.79537809  0.40729248  1.0
  P  P5727  1  0.45398759  0.92037809  0.40729248  1.0
  P  P5728  1  0.56509871  0.04537809  0.40729248  1.0
  P  P5729  1  0.56509871  0.17037809  0.40729248  1.0
  P  P5730  1  0.56509871  0.29537809  0.40729248  1.0
  P  P5731  1  0.56509871  0.42037809  0.40729248  1.0
  P  P5732  1  0.56509871  0.54537809  0.40729248  1.0
  P  P5733  1  0.56509871  0.67037809  0.40729248  1.0
  P  P5734  1  0.56509871  0.79537809  0.40729248  1.0
  P  P5735  1  0.56509871  0.92037809  0.40729248  1.0
  P  P5736  1  0.67620982  0.04537809  0.40729248  1.0
  P  P5737  1  0.67620982  0.17037809  0.40729248  1.0
  P  P5738  1  0.67620982  0.29537809  0.40729248  1.0
  P  P5739  1  0.67620982  0.42037809  0.40729248  1.0
  P  P5740  1  0.67620982  0.54537809  0.40729248  1.0
  P  P5741  1  0.67620982  0.67037809  0.40729248  1.0
  P  P5742  1  0.67620982  0.79537809  0.40729248  1.0
  P  P5743  1  0.67620982  0.92037809  0.40729248  1.0
  P  P5744  1  0.78732093  0.04537809  0.40729248  1.0
  P  P5745  1  0.78732093  0.17037809  0.40729248  1.0
  P  P5746  1  0.78732093  0.29537809  0.40729248  1.0
  P  P5747  1  0.78732093  0.42037809  0.40729248  1.0
  P  P5748  1  0.78732093  0.54537809  0.40729248  1.0
  P  P5749  1  0.78732093  0.67037809  0.40729248  1.0
  P  P5750  1  0.78732093  0.79537809  0.40729248  1.0
  P  P5751  1  0.78732093  0.92037809  0.40729248  1.0
  P  P5752  1  0.89843204  0.04537809  0.40729248  1.0
  P  P5753  1  0.89843204  0.17037809  0.40729248  1.0
  P  P5754  1  0.89843204  0.29537809  0.40729248  1.0
  P  P5755  1  0.89843204  0.42037809  0.40729248  1.0
  P  P5756  1  0.89843204  0.54537809  0.40729248  1.0
  P  P5757  1  0.89843204  0.67037809  0.40729248  1.0
  P  P5758  1  0.89843204  0.79537809  0.40729248  1.0
  P  P5759  1  0.89843204  0.92037809  0.40729248  1.0
  P  P5760  1  0.09419923  0.04537809  0.35967344  1.0
  P  P5761  1  0.09419923  0.17037809  0.35967344  1.0
  P  P5762  1  0.09419923  0.29537809  0.35967344  1.0
  P  P5763  1  0.09419923  0.42037809  0.35967344  1.0
  P  P5764  1  0.09419923  0.54537809  0.35967344  1.0
  P  P5765  1  0.09419923  0.67037809  0.35967344  1.0
  P  P5766  1  0.09419923  0.79537809  0.35967344  1.0
  P  P5767  1  0.09419923  0.92037809  0.35967344  1.0
  P  P5768  1  0.20531035  0.04537809  0.35967344  1.0
  P  P5769  1  0.20531035  0.17037809  0.35967344  1.0
  P  P5770  1  0.20531035  0.29537809  0.35967344  1.0
  P  P5771  1  0.20531035  0.42037809  0.35967344  1.0
  P  P5772  1  0.20531035  0.54537809  0.35967344  1.0
  P  P5773  1  0.20531035  0.67037809  0.35967344  1.0
  P  P5774  1  0.20531035  0.79537809  0.35967344  1.0
  P  P5775  1  0.20531035  0.92037809  0.35967344  1.0
  P  P5776  1  0.31642146  0.04537809  0.35967344  1.0
  P  P5777  1  0.31642146  0.17037809  0.35967344  1.0
  P  P5778  1  0.31642146  0.29537809  0.35967344  1.0
  P  P5779  1  0.31642146  0.42037809  0.35967344  1.0
  P  P5780  1  0.31642146  0.54537809  0.35967344  1.0
  P  P5781  1  0.31642146  0.67037809  0.35967344  1.0
  P  P5782  1  0.31642146  0.79537809  0.35967344  1.0
  P  P5783  1  0.31642146  0.92037809  0.35967344  1.0
  P  P5784  1  0.42753257  0.04537809  0.35967344  1.0
  P  P5785  1  0.42753257  0.17037809  0.35967344  1.0
  P  P5786  1  0.42753257  0.29537809  0.35967344  1.0
  P  P5787  1  0.42753257  0.42037809  0.35967344  1.0
  P  P5788  1  0.42753257  0.54537809  0.35967344  1.0
  P  P5789  1  0.42753257  0.67037809  0.35967344  1.0
  P  P5790  1  0.42753257  0.79537809  0.35967344  1.0
  P  P5791  1  0.42753257  0.92037809  0.35967344  1.0
  P  P5792  1  0.53864368  0.04537809  0.35967344  1.0
  P  P5793  1  0.53864368  0.17037809  0.35967344  1.0
  P  P5794  1  0.53864368  0.29537809  0.35967344  1.0
  P  P5795  1  0.53864368  0.42037809  0.35967344  1.0
  P  P5796  1  0.53864368  0.54537809  0.35967344  1.0
  P  P5797  1  0.53864368  0.67037809  0.35967344  1.0
  P  P5798  1  0.53864368  0.79537809  0.35967344  1.0
  P  P5799  1  0.53864368  0.92037809  0.35967344  1.0
  P  P5800  1  0.64975479  0.04537809  0.35967344  1.0
  P  P5801  1  0.64975479  0.17037809  0.35967344  1.0
  P  P5802  1  0.64975479  0.29537809  0.35967344  1.0
  P  P5803  1  0.64975479  0.42037809  0.35967344  1.0
  P  P5804  1  0.64975479  0.54537809  0.35967344  1.0
  P  P5805  1  0.64975479  0.67037809  0.35967344  1.0
  P  P5806  1  0.64975479  0.79537809  0.35967344  1.0
  P  P5807  1  0.64975479  0.92037809  0.35967344  1.0
  P  P5808  1  0.76086590  0.04537809  0.35967344  1.0
  P  P5809  1  0.76086590  0.17037809  0.35967344  1.0
  P  P5810  1  0.76086590  0.29537809  0.35967344  1.0
  P  P5811  1  0.76086590  0.42037809  0.35967344  1.0
  P  P5812  1  0.76086590  0.54537809  0.35967344  1.0
  P  P5813  1  0.76086590  0.67037809  0.35967344  1.0
  P  P5814  1  0.76086590  0.79537809  0.35967344  1.0
  P  P5815  1  0.76086590  0.92037809  0.35967344  1.0
  P  P5816  1  0.87197701  0.04537809  0.35967344  1.0
  P  P5817  1  0.87197701  0.17037809  0.35967344  1.0
  P  P5818  1  0.87197701  0.29537809  0.35967344  1.0
  P  P5819  1  0.87197701  0.42037809  0.35967344  1.0
  P  P5820  1  0.87197701  0.54537809  0.35967344  1.0
  P  P5821  1  0.87197701  0.67037809  0.35967344  1.0
  P  P5822  1  0.87197701  0.79537809  0.35967344  1.0
  P  P5823  1  0.87197701  0.92037809  0.35967344  1.0
  P  P5824  1  0.98308812  0.04537809  0.35967344  1.0
  P  P5825  1  0.98308812  0.17037809  0.35967344  1.0
  P  P5826  1  0.98308812  0.29537809  0.35967344  1.0
  P  P5827  1  0.98308812  0.42037809  0.35967344  1.0
  P  P5828  1  0.98308812  0.54537809  0.35967344  1.0
  P  P5829  1  0.98308812  0.67037809  0.35967344  1.0
  P  P5830  1  0.98308812  0.79537809  0.35967344  1.0
  P  P5831  1  0.98308812  0.92037809  0.35967344  1.0
  P  P5832  1  0.03599818  0.04537809  0.45491153  1.0
  P  P5833  1  0.03599818  0.17037809  0.45491153  1.0
  P  P5834  1  0.03599818  0.29537809  0.45491153  1.0
  P  P5835  1  0.03599818  0.42037809  0.45491153  1.0
  P  P5836  1  0.03599818  0.54537809  0.45491153  1.0
  P  P5837  1  0.03599818  0.67037809  0.45491153  1.0
  P  P5838  1  0.03599818  0.79537809  0.45491153  1.0
  P  P5839  1  0.03599818  0.92037809  0.45491153  1.0
  P  P5840  1  0.14710929  0.04537809  0.45491153  1.0
  P  P5841  1  0.14710929  0.17037809  0.45491153  1.0
  P  P5842  1  0.14710929  0.29537809  0.45491153  1.0
  P  P5843  1  0.14710929  0.42037809  0.45491153  1.0
  P  P5844  1  0.14710929  0.54537809  0.45491153  1.0
  P  P5845  1  0.14710929  0.67037809  0.45491153  1.0
  P  P5846  1  0.14710929  0.79537809  0.45491153  1.0
  P  P5847  1  0.14710929  0.92037809  0.45491153  1.0
  P  P5848  1  0.25822040  0.04537809  0.45491153  1.0
  P  P5849  1  0.25822040  0.17037809  0.45491153  1.0
  P  P5850  1  0.25822040  0.29537809  0.45491153  1.0
  P  P5851  1  0.25822040  0.42037809  0.45491153  1.0
  P  P5852  1  0.25822040  0.54537809  0.45491153  1.0
  P  P5853  1  0.25822040  0.67037809  0.45491153  1.0
  P  P5854  1  0.25822040  0.79537809  0.45491153  1.0
  P  P5855  1  0.25822040  0.92037809  0.45491153  1.0
  P  P5856  1  0.36933151  0.04537809  0.45491153  1.0
  P  P5857  1  0.36933151  0.17037809  0.45491153  1.0
  P  P5858  1  0.36933151  0.29537809  0.45491153  1.0
  P  P5859  1  0.36933151  0.42037809  0.45491153  1.0
  P  P5860  1  0.36933151  0.54537809  0.45491153  1.0
  P  P5861  1  0.36933151  0.67037809  0.45491153  1.0
  P  P5862  1  0.36933151  0.79537809  0.45491153  1.0
  P  P5863  1  0.36933151  0.92037809  0.45491153  1.0
  P  P5864  1  0.48044262  0.04537809  0.45491153  1.0
  P  P5865  1  0.48044262  0.17037809  0.45491153  1.0
  P  P5866  1  0.48044262  0.29537809  0.45491153  1.0
  P  P5867  1  0.48044262  0.42037809  0.45491153  1.0
  P  P5868  1  0.48044262  0.54537809  0.45491153  1.0
  P  P5869  1  0.48044262  0.67037809  0.45491153  1.0
  P  P5870  1  0.48044262  0.79537809  0.45491153  1.0
  P  P5871  1  0.48044262  0.92037809  0.45491153  1.0
  P  P5872  1  0.59155373  0.04537809  0.45491153  1.0
  P  P5873  1  0.59155373  0.17037809  0.45491153  1.0
  P  P5874  1  0.59155373  0.29537809  0.45491153  1.0
  P  P5875  1  0.59155373  0.42037809  0.45491153  1.0
  P  P5876  1  0.59155373  0.54537809  0.45491153  1.0
  P  P5877  1  0.59155373  0.67037809  0.45491153  1.0
  P  P5878  1  0.59155373  0.79537809  0.45491153  1.0
  P  P5879  1  0.59155373  0.92037809  0.45491153  1.0
  P  P5880  1  0.70266484  0.04537809  0.45491153  1.0
  P  P5881  1  0.70266484  0.17037809  0.45491153  1.0
  P  P5882  1  0.70266484  0.29537809  0.45491153  1.0
  P  P5883  1  0.70266484  0.42037809  0.45491153  1.0
  P  P5884  1  0.70266484  0.54537809  0.45491153  1.0
  P  P5885  1  0.70266484  0.67037809  0.45491153  1.0
  P  P5886  1  0.70266484  0.79537809  0.45491153  1.0
  P  P5887  1  0.70266484  0.92037809  0.45491153  1.0
  P  P5888  1  0.81377595  0.04537809  0.45491153  1.0
  P  P5889  1  0.81377595  0.17037809  0.45491153  1.0
  P  P5890  1  0.81377595  0.29537809  0.45491153  1.0
  P  P5891  1  0.81377595  0.42037809  0.45491153  1.0
  P  P5892  1  0.81377595  0.54537809  0.45491153  1.0
  P  P5893  1  0.81377595  0.67037809  0.45491153  1.0
  P  P5894  1  0.81377595  0.79537809  0.45491153  1.0
  P  P5895  1  0.81377595  0.92037809  0.45491153  1.0
  P  P5896  1  0.92488707  0.04537809  0.45491153  1.0
  P  P5897  1  0.92488707  0.17037809  0.45491153  1.0
  P  P5898  1  0.92488707  0.29537809  0.45491153  1.0
  P  P5899  1  0.92488707  0.42037809  0.45491153  1.0
  P  P5900  1  0.92488707  0.54537809  0.45491153  1.0
  P  P5901  1  0.92488707  0.67037809  0.45491153  1.0
  P  P5902  1  0.92488707  0.79537809  0.45491153  1.0
  P  P5903  1  0.92488707  0.92037809  0.45491153  1.0
  P  P5904  1  0.01228511  0.12004423  0.40575013  1.0
  P  P5905  1  0.01228511  0.24504423  0.40575013  1.0
  P  P5906  1  0.01228511  0.37004423  0.40575013  1.0
  P  P5907  1  0.01228511  0.49504423  0.40575013  1.0
  P  P5908  1  0.01228511  0.62004423  0.40575013  1.0
  P  P5909  1  0.01228511  0.74504423  0.40575013  1.0
  P  P5910  1  0.01228511  0.87004423  0.40575013  1.0
  P  P5911  1  0.01228511  0.99504423  0.40575013  1.0
  P  P5912  1  0.12339623  0.12004423  0.40575013  1.0
  P  P5913  1  0.12339623  0.24504423  0.40575013  1.0
  P  P5914  1  0.12339623  0.37004423  0.40575013  1.0
  P  P5915  1  0.12339623  0.49504423  0.40575013  1.0
  P  P5916  1  0.12339623  0.62004423  0.40575013  1.0
  P  P5917  1  0.12339623  0.74504423  0.40575013  1.0
  P  P5918  1  0.12339623  0.87004423  0.40575013  1.0
  P  P5919  1  0.12339623  0.99504423  0.40575013  1.0
  P  P5920  1  0.23450734  0.12004423  0.40575013  1.0
  P  P5921  1  0.23450734  0.24504423  0.40575013  1.0
  P  P5922  1  0.23450734  0.37004423  0.40575013  1.0
  P  P5923  1  0.23450734  0.49504423  0.40575013  1.0
  P  P5924  1  0.23450734  0.62004423  0.40575013  1.0
  P  P5925  1  0.23450734  0.74504423  0.40575013  1.0
  P  P5926  1  0.23450734  0.87004423  0.40575013  1.0
  P  P5927  1  0.23450734  0.99504423  0.40575013  1.0
  P  P5928  1  0.34561845  0.12004423  0.40575013  1.0
  P  P5929  1  0.34561845  0.24504423  0.40575013  1.0
  P  P5930  1  0.34561845  0.37004423  0.40575013  1.0
  P  P5931  1  0.34561845  0.49504423  0.40575013  1.0
  P  P5932  1  0.34561845  0.62004423  0.40575013  1.0
  P  P5933  1  0.34561845  0.74504423  0.40575013  1.0
  P  P5934  1  0.34561845  0.87004423  0.40575013  1.0
  P  P5935  1  0.34561845  0.99504423  0.40575013  1.0
  P  P5936  1  0.45672956  0.12004423  0.40575013  1.0
  P  P5937  1  0.45672956  0.24504423  0.40575013  1.0
  P  P5938  1  0.45672956  0.37004423  0.40575013  1.0
  P  P5939  1  0.45672956  0.49504423  0.40575013  1.0
  P  P5940  1  0.45672956  0.62004423  0.40575013  1.0
  P  P5941  1  0.45672956  0.74504423  0.40575013  1.0
  P  P5942  1  0.45672956  0.87004423  0.40575013  1.0
  P  P5943  1  0.45672956  0.99504423  0.40575013  1.0
  P  P5944  1  0.56784067  0.12004423  0.40575013  1.0
  P  P5945  1  0.56784067  0.24504423  0.40575013  1.0
  P  P5946  1  0.56784067  0.37004423  0.40575013  1.0
  P  P5947  1  0.56784067  0.49504423  0.40575013  1.0
  P  P5948  1  0.56784067  0.62004423  0.40575013  1.0
  P  P5949  1  0.56784067  0.74504423  0.40575013  1.0
  P  P5950  1  0.56784067  0.87004423  0.40575013  1.0
  P  P5951  1  0.56784067  0.99504423  0.40575013  1.0
  P  P5952  1  0.67895178  0.12004423  0.40575013  1.0
  P  P5953  1  0.67895178  0.24504423  0.40575013  1.0
  P  P5954  1  0.67895178  0.37004423  0.40575013  1.0
  P  P5955  1  0.67895178  0.49504423  0.40575013  1.0
  P  P5956  1  0.67895178  0.62004423  0.40575013  1.0
  P  P5957  1  0.67895178  0.74504423  0.40575013  1.0
  P  P5958  1  0.67895178  0.87004423  0.40575013  1.0
  P  P5959  1  0.67895178  0.99504423  0.40575013  1.0
  P  P5960  1  0.79006289  0.12004423  0.40575013  1.0
  P  P5961  1  0.79006289  0.24504423  0.40575013  1.0
  P  P5962  1  0.79006289  0.37004423  0.40575013  1.0
  P  P5963  1  0.79006289  0.49504423  0.40575013  1.0
  P  P5964  1  0.79006289  0.62004423  0.40575013  1.0
  P  P5965  1  0.79006289  0.74504423  0.40575013  1.0
  P  P5966  1  0.79006289  0.87004423  0.40575013  1.0
  P  P5967  1  0.79006289  0.99504423  0.40575013  1.0
  P  P5968  1  0.90117400  0.12004423  0.40575013  1.0
  P  P5969  1  0.90117400  0.24504423  0.40575013  1.0
  P  P5970  1  0.90117400  0.37004423  0.40575013  1.0
  P  P5971  1  0.90117400  0.49504423  0.40575013  1.0
  P  P5972  1  0.90117400  0.62004423  0.40575013  1.0
  P  P5973  1  0.90117400  0.74504423  0.40575013  1.0
  P  P5974  1  0.90117400  0.87004423  0.40575013  1.0
  P  P5975  1  0.90117400  0.99504423  0.40575013  1.0
  P  P5976  1  0.09694120  0.12004423  0.35813108  1.0
  P  P5977  1  0.09694120  0.24504423  0.35813108  1.0
  P  P5978  1  0.09694120  0.37004423  0.35813108  1.0
  P  P5979  1  0.09694120  0.49504423  0.35813108  1.0
  P  P5980  1  0.09694120  0.62004423  0.35813108  1.0
  P  P5981  1  0.09694120  0.74504423  0.35813108  1.0
  P  P5982  1  0.09694120  0.87004423  0.35813108  1.0
  P  P5983  1  0.09694120  0.99504423  0.35813108  1.0
  P  P5984  1  0.20805231  0.12004423  0.35813108  1.0
  P  P5985  1  0.20805231  0.24504423  0.35813108  1.0
  P  P5986  1  0.20805231  0.37004423  0.35813108  1.0
  P  P5987  1  0.20805231  0.49504423  0.35813108  1.0
  P  P5988  1  0.20805231  0.62004423  0.35813108  1.0
  P  P5989  1  0.20805231  0.74504423  0.35813108  1.0
  P  P5990  1  0.20805231  0.87004423  0.35813108  1.0
  P  P5991  1  0.20805231  0.99504423  0.35813108  1.0
  P  P5992  1  0.31916342  0.12004423  0.35813108  1.0
  P  P5993  1  0.31916342  0.24504423  0.35813108  1.0
  P  P5994  1  0.31916342  0.37004423  0.35813108  1.0
  P  P5995  1  0.31916342  0.49504423  0.35813108  1.0
  P  P5996  1  0.31916342  0.62004423  0.35813108  1.0
  P  P5997  1  0.31916342  0.74504423  0.35813108  1.0
  P  P5998  1  0.31916342  0.87004423  0.35813108  1.0
  P  P5999  1  0.31916342  0.99504423  0.35813108  1.0
  P  P6000  1  0.43027453  0.12004423  0.35813108  1.0
  P  P6001  1  0.43027453  0.24504423  0.35813108  1.0
  P  P6002  1  0.43027453  0.37004423  0.35813108  1.0
  P  P6003  1  0.43027453  0.49504423  0.35813108  1.0
  P  P6004  1  0.43027453  0.62004423  0.35813108  1.0
  P  P6005  1  0.43027453  0.74504423  0.35813108  1.0
  P  P6006  1  0.43027453  0.87004423  0.35813108  1.0
  P  P6007  1  0.43027453  0.99504423  0.35813108  1.0
  P  P6008  1  0.54138564  0.12004423  0.35813108  1.0
  P  P6009  1  0.54138564  0.24504423  0.35813108  1.0
  P  P6010  1  0.54138564  0.37004423  0.35813108  1.0
  P  P6011  1  0.54138564  0.49504423  0.35813108  1.0
  P  P6012  1  0.54138564  0.62004423  0.35813108  1.0
  P  P6013  1  0.54138564  0.74504423  0.35813108  1.0
  P  P6014  1  0.54138564  0.87004423  0.35813108  1.0
  P  P6015  1  0.54138564  0.99504423  0.35813108  1.0
  P  P6016  1  0.65249675  0.12004423  0.35813108  1.0
  P  P6017  1  0.65249675  0.24504423  0.35813108  1.0
  P  P6018  1  0.65249675  0.37004423  0.35813108  1.0
  P  P6019  1  0.65249675  0.49504423  0.35813108  1.0
  P  P6020  1  0.65249675  0.62004423  0.35813108  1.0
  P  P6021  1  0.65249675  0.74504423  0.35813108  1.0
  P  P6022  1  0.65249675  0.87004423  0.35813108  1.0
  P  P6023  1  0.65249675  0.99504423  0.35813108  1.0
  P  P6024  1  0.76360787  0.12004423  0.35813108  1.0
  P  P6025  1  0.76360787  0.24504423  0.35813108  1.0
  P  P6026  1  0.76360787  0.37004423  0.35813108  1.0
  P  P6027  1  0.76360787  0.49504423  0.35813108  1.0
  P  P6028  1  0.76360787  0.62004423  0.35813108  1.0
  P  P6029  1  0.76360787  0.74504423  0.35813108  1.0
  P  P6030  1  0.76360787  0.87004423  0.35813108  1.0
  P  P6031  1  0.76360787  0.99504423  0.35813108  1.0
  P  P6032  1  0.87471898  0.12004423  0.35813108  1.0
  P  P6033  1  0.87471898  0.24504423  0.35813108  1.0
  P  P6034  1  0.87471898  0.37004423  0.35813108  1.0
  P  P6035  1  0.87471898  0.49504423  0.35813108  1.0
  P  P6036  1  0.87471898  0.62004423  0.35813108  1.0
  P  P6037  1  0.87471898  0.74504423  0.35813108  1.0
  P  P6038  1  0.87471898  0.87004423  0.35813108  1.0
  P  P6039  1  0.87471898  0.99504423  0.35813108  1.0
  P  P6040  1  0.98583009  0.12004423  0.35813108  1.0
  P  P6041  1  0.98583009  0.24504423  0.35813108  1.0
  P  P6042  1  0.98583009  0.37004423  0.35813108  1.0
  P  P6043  1  0.98583009  0.49504423  0.35813108  1.0
  P  P6044  1  0.98583009  0.62004423  0.35813108  1.0
  P  P6045  1  0.98583009  0.74504423  0.35813108  1.0
  P  P6046  1  0.98583009  0.87004423  0.35813108  1.0
  P  P6047  1  0.98583009  0.99504423  0.35813108  1.0
  P  P6048  1  0.03874014  0.12004423  0.45336918  1.0
  P  P6049  1  0.03874014  0.24504423  0.45336918  1.0
  P  P6050  1  0.03874014  0.37004423  0.45336918  1.0
  P  P6051  1  0.03874014  0.49504423  0.45336918  1.0
  P  P6052  1  0.03874014  0.62004423  0.45336918  1.0
  P  P6053  1  0.03874014  0.74504423  0.45336918  1.0
  P  P6054  1  0.03874014  0.87004423  0.45336918  1.0
  P  P6055  1  0.03874014  0.99504423  0.45336918  1.0
  P  P6056  1  0.14985125  0.12004423  0.45336918  1.0
  P  P6057  1  0.14985125  0.24504423  0.45336918  1.0
  P  P6058  1  0.14985125  0.37004423  0.45336918  1.0
  P  P6059  1  0.14985125  0.49504423  0.45336918  1.0
  P  P6060  1  0.14985125  0.62004423  0.45336918  1.0
  P  P6061  1  0.14985125  0.74504423  0.45336918  1.0
  P  P6062  1  0.14985125  0.87004423  0.45336918  1.0
  P  P6063  1  0.14985125  0.99504423  0.45336918  1.0
  P  P6064  1  0.26096236  0.12004423  0.45336918  1.0
  P  P6065  1  0.26096236  0.24504423  0.45336918  1.0
  P  P6066  1  0.26096236  0.37004423  0.45336918  1.0
  P  P6067  1  0.26096236  0.49504423  0.45336918  1.0
  P  P6068  1  0.26096236  0.62004423  0.45336918  1.0
  P  P6069  1  0.26096236  0.74504423  0.45336918  1.0
  P  P6070  1  0.26096236  0.87004423  0.45336918  1.0
  P  P6071  1  0.26096236  0.99504423  0.45336918  1.0
  P  P6072  1  0.37207347  0.12004423  0.45336918  1.0
  P  P6073  1  0.37207347  0.24504423  0.45336918  1.0
  P  P6074  1  0.37207347  0.37004423  0.45336918  1.0
  P  P6075  1  0.37207347  0.49504423  0.45336918  1.0
  P  P6076  1  0.37207347  0.62004423  0.45336918  1.0
  P  P6077  1  0.37207347  0.74504423  0.45336918  1.0
  P  P6078  1  0.37207347  0.87004423  0.45336918  1.0
  P  P6079  1  0.37207347  0.99504423  0.45336918  1.0
  P  P6080  1  0.48318458  0.12004423  0.45336918  1.0
  P  P6081  1  0.48318458  0.24504423  0.45336918  1.0
  P  P6082  1  0.48318458  0.37004423  0.45336918  1.0
  P  P6083  1  0.48318458  0.49504423  0.45336918  1.0
  P  P6084  1  0.48318458  0.62004423  0.45336918  1.0
  P  P6085  1  0.48318458  0.74504423  0.45336918  1.0
  P  P6086  1  0.48318458  0.87004423  0.45336918  1.0
  P  P6087  1  0.48318458  0.99504423  0.45336918  1.0
  P  P6088  1  0.59429570  0.12004423  0.45336918  1.0
  P  P6089  1  0.59429570  0.24504423  0.45336918  1.0
  P  P6090  1  0.59429570  0.37004423  0.45336918  1.0
  P  P6091  1  0.59429570  0.49504423  0.45336918  1.0
  P  P6092  1  0.59429570  0.62004423  0.45336918  1.0
  P  P6093  1  0.59429570  0.74504423  0.45336918  1.0
  P  P6094  1  0.59429570  0.87004423  0.45336918  1.0
  P  P6095  1  0.59429570  0.99504423  0.45336918  1.0
  P  P6096  1  0.70540681  0.12004423  0.45336918  1.0
  P  P6097  1  0.70540681  0.24504423  0.45336918  1.0
  P  P6098  1  0.70540681  0.37004423  0.45336918  1.0
  P  P6099  1  0.70540681  0.49504423  0.45336918  1.0
  P  P6100  1  0.70540681  0.62004423  0.45336918  1.0
  P  P6101  1  0.70540681  0.74504423  0.45336918  1.0
  P  P6102  1  0.70540681  0.87004423  0.45336918  1.0
  P  P6103  1  0.70540681  0.99504423  0.45336918  1.0
  P  P6104  1  0.81651792  0.12004423  0.45336918  1.0
  P  P6105  1  0.81651792  0.24504423  0.45336918  1.0
  P  P6106  1  0.81651792  0.37004423  0.45336918  1.0
  P  P6107  1  0.81651792  0.49504423  0.45336918  1.0
  P  P6108  1  0.81651792  0.62004423  0.45336918  1.0
  P  P6109  1  0.81651792  0.74504423  0.45336918  1.0
  P  P6110  1  0.81651792  0.87004423  0.45336918  1.0
  P  P6111  1  0.81651792  0.99504423  0.45336918  1.0
  P  P6112  1  0.92762903  0.12004423  0.45336918  1.0
  P  P6113  1  0.92762903  0.24504423  0.45336918  1.0
  P  P6114  1  0.92762903  0.37004423  0.45336918  1.0
  P  P6115  1  0.92762903  0.49504423  0.45336918  1.0
  P  P6116  1  0.92762903  0.62004423  0.45336918  1.0
  P  P6117  1  0.92762903  0.74504423  0.45336918  1.0
  P  P6118  1  0.92762903  0.87004423  0.45336918  1.0
  P  P6119  1  0.92762903  0.99504423  0.45336918  1.0
  P  P6120  1  0.08980471  0.00495577  0.39339536  1.0
  P  P6121  1  0.08980471  0.12995577  0.39339536  1.0
  P  P6122  1  0.08980471  0.25495577  0.39339536  1.0
  P  P6123  1  0.08980471  0.37995577  0.39339536  1.0
  P  P6124  1  0.08980471  0.50495577  0.39339536  1.0
  P  P6125  1  0.08980471  0.62995577  0.39339536  1.0
  P  P6126  1  0.08980471  0.75495577  0.39339536  1.0
  P  P6127  1  0.08980471  0.87995577  0.39339536  1.0
  P  P6128  1  0.20091582  0.00495577  0.39339536  1.0
  P  P6129  1  0.20091582  0.12995577  0.39339536  1.0
  P  P6130  1  0.20091582  0.25495577  0.39339536  1.0
  P  P6131  1  0.20091582  0.37995577  0.39339536  1.0
  P  P6132  1  0.20091582  0.50495577  0.39339536  1.0
  P  P6133  1  0.20091582  0.62995577  0.39339536  1.0
  P  P6134  1  0.20091582  0.75495577  0.39339536  1.0
  P  P6135  1  0.20091582  0.87995577  0.39339536  1.0
  P  P6136  1  0.31202693  0.00495577  0.39339536  1.0
  P  P6137  1  0.31202693  0.12995577  0.39339536  1.0
  P  P6138  1  0.31202693  0.25495577  0.39339536  1.0
  P  P6139  1  0.31202693  0.37995577  0.39339536  1.0
  P  P6140  1  0.31202693  0.50495577  0.39339536  1.0
  P  P6141  1  0.31202693  0.62995577  0.39339536  1.0
  P  P6142  1  0.31202693  0.75495577  0.39339536  1.0
  P  P6143  1  0.31202693  0.87995577  0.39339536  1.0
  P  P6144  1  0.42313804  0.00495577  0.39339536  1.0
  P  P6145  1  0.42313804  0.12995577  0.39339536  1.0
  P  P6146  1  0.42313804  0.25495577  0.39339536  1.0
  P  P6147  1  0.42313804  0.37995577  0.39339536  1.0
  P  P6148  1  0.42313804  0.50495577  0.39339536  1.0
  P  P6149  1  0.42313804  0.62995577  0.39339536  1.0
  P  P6150  1  0.42313804  0.75495577  0.39339536  1.0
  P  P6151  1  0.42313804  0.87995577  0.39339536  1.0
  P  P6152  1  0.53424915  0.00495577  0.39339536  1.0
  P  P6153  1  0.53424915  0.12995577  0.39339536  1.0
  P  P6154  1  0.53424915  0.25495577  0.39339536  1.0
  P  P6155  1  0.53424915  0.37995577  0.39339536  1.0
  P  P6156  1  0.53424915  0.50495577  0.39339536  1.0
  P  P6157  1  0.53424915  0.62995577  0.39339536  1.0
  P  P6158  1  0.53424915  0.75495577  0.39339536  1.0
  P  P6159  1  0.53424915  0.87995577  0.39339536  1.0
  P  P6160  1  0.64536026  0.00495577  0.39339536  1.0
  P  P6161  1  0.64536026  0.12995577  0.39339536  1.0
  P  P6162  1  0.64536026  0.25495577  0.39339536  1.0
  P  P6163  1  0.64536026  0.37995577  0.39339536  1.0
  P  P6164  1  0.64536026  0.50495577  0.39339536  1.0
  P  P6165  1  0.64536026  0.62995577  0.39339536  1.0
  P  P6166  1  0.64536026  0.75495577  0.39339536  1.0
  P  P6167  1  0.64536026  0.87995577  0.39339536  1.0
  P  P6168  1  0.75647138  0.00495577  0.39339536  1.0
  P  P6169  1  0.75647138  0.12995577  0.39339536  1.0
  P  P6170  1  0.75647138  0.25495577  0.39339536  1.0
  P  P6171  1  0.75647138  0.37995577  0.39339536  1.0
  P  P6172  1  0.75647138  0.50495577  0.39339536  1.0
  P  P6173  1  0.75647138  0.62995577  0.39339536  1.0
  P  P6174  1  0.75647138  0.75495577  0.39339536  1.0
  P  P6175  1  0.75647138  0.87995577  0.39339536  1.0
  P  P6176  1  0.86758249  0.00495577  0.39339536  1.0
  P  P6177  1  0.86758249  0.12995577  0.39339536  1.0
  P  P6178  1  0.86758249  0.25495577  0.39339536  1.0
  P  P6179  1  0.86758249  0.37995577  0.39339536  1.0
  P  P6180  1  0.86758249  0.50495577  0.39339536  1.0
  P  P6181  1  0.86758249  0.62995577  0.39339536  1.0
  P  P6182  1  0.86758249  0.75495577  0.39339536  1.0
  P  P6183  1  0.86758249  0.87995577  0.39339536  1.0
  P  P6184  1  0.97869360  0.00495577  0.39339536  1.0
  P  P6185  1  0.97869360  0.12995577  0.39339536  1.0
  P  P6186  1  0.97869360  0.25495577  0.39339536  1.0
  P  P6187  1  0.97869360  0.37995577  0.39339536  1.0
  P  P6188  1  0.97869360  0.50495577  0.39339536  1.0
  P  P6189  1  0.97869360  0.62995577  0.39339536  1.0
  P  P6190  1  0.97869360  0.75495577  0.39339536  1.0
  P  P6191  1  0.97869360  0.87995577  0.39339536  1.0
  P  P6192  1  0.03160365  0.00495577  0.48863345  1.0
  P  P6193  1  0.03160365  0.12995577  0.48863345  1.0
  P  P6194  1  0.03160365  0.25495577  0.48863345  1.0
  P  P6195  1  0.03160365  0.37995577  0.48863345  1.0
  P  P6196  1  0.03160365  0.50495577  0.48863345  1.0
  P  P6197  1  0.03160365  0.62995577  0.48863345  1.0
  P  P6198  1  0.03160365  0.75495577  0.48863345  1.0
  P  P6199  1  0.03160365  0.87995577  0.48863345  1.0
  P  P6200  1  0.14271476  0.00495577  0.48863345  1.0
  P  P6201  1  0.14271476  0.12995577  0.48863345  1.0
  P  P6202  1  0.14271476  0.25495577  0.48863345  1.0
  P  P6203  1  0.14271476  0.37995577  0.48863345  1.0
  P  P6204  1  0.14271476  0.50495577  0.48863345  1.0
  P  P6205  1  0.14271476  0.62995577  0.48863345  1.0
  P  P6206  1  0.14271476  0.75495577  0.48863345  1.0
  P  P6207  1  0.14271476  0.87995577  0.48863345  1.0
  P  P6208  1  0.25382587  0.00495577  0.48863345  1.0
  P  P6209  1  0.25382587  0.12995577  0.48863345  1.0
  P  P6210  1  0.25382587  0.25495577  0.48863345  1.0
  P  P6211  1  0.25382587  0.37995577  0.48863345  1.0
  P  P6212  1  0.25382587  0.50495577  0.48863345  1.0
  P  P6213  1  0.25382587  0.62995577  0.48863345  1.0
  P  P6214  1  0.25382587  0.75495577  0.48863345  1.0
  P  P6215  1  0.25382587  0.87995577  0.48863345  1.0
  P  P6216  1  0.36493698  0.00495577  0.48863345  1.0
  P  P6217  1  0.36493698  0.12995577  0.48863345  1.0
  P  P6218  1  0.36493698  0.25495577  0.48863345  1.0
  P  P6219  1  0.36493698  0.37995577  0.48863345  1.0
  P  P6220  1  0.36493698  0.50495577  0.48863345  1.0
  P  P6221  1  0.36493698  0.62995577  0.48863345  1.0
  P  P6222  1  0.36493698  0.75495577  0.48863345  1.0
  P  P6223  1  0.36493698  0.87995577  0.48863345  1.0
  P  P6224  1  0.47604810  0.00495577  0.48863345  1.0
  P  P6225  1  0.47604810  0.12995577  0.48863345  1.0
  P  P6226  1  0.47604810  0.25495577  0.48863345  1.0
  P  P6227  1  0.47604810  0.37995577  0.48863345  1.0
  P  P6228  1  0.47604810  0.50495577  0.48863345  1.0
  P  P6229  1  0.47604810  0.62995577  0.48863345  1.0
  P  P6230  1  0.47604810  0.75495577  0.48863345  1.0
  P  P6231  1  0.47604810  0.87995577  0.48863345  1.0
  P  P6232  1  0.58715921  0.00495577  0.48863345  1.0
  P  P6233  1  0.58715921  0.12995577  0.48863345  1.0
  P  P6234  1  0.58715921  0.25495577  0.48863345  1.0
  P  P6235  1  0.58715921  0.37995577  0.48863345  1.0
  P  P6236  1  0.58715921  0.50495577  0.48863345  1.0
  P  P6237  1  0.58715921  0.62995577  0.48863345  1.0
  P  P6238  1  0.58715921  0.75495577  0.48863345  1.0
  P  P6239  1  0.58715921  0.87995577  0.48863345  1.0
  P  P6240  1  0.69827032  0.00495577  0.48863345  1.0
  P  P6241  1  0.69827032  0.12995577  0.48863345  1.0
  P  P6242  1  0.69827032  0.25495577  0.48863345  1.0
  P  P6243  1  0.69827032  0.37995577  0.48863345  1.0
  P  P6244  1  0.69827032  0.50495577  0.48863345  1.0
  P  P6245  1  0.69827032  0.62995577  0.48863345  1.0
  P  P6246  1  0.69827032  0.75495577  0.48863345  1.0
  P  P6247  1  0.69827032  0.87995577  0.48863345  1.0
  P  P6248  1  0.80938143  0.00495577  0.48863345  1.0
  P  P6249  1  0.80938143  0.12995577  0.48863345  1.0
  P  P6250  1  0.80938143  0.25495577  0.48863345  1.0
  P  P6251  1  0.80938143  0.37995577  0.48863345  1.0
  P  P6252  1  0.80938143  0.50495577  0.48863345  1.0
  P  P6253  1  0.80938143  0.62995577  0.48863345  1.0
  P  P6254  1  0.80938143  0.75495577  0.48863345  1.0
  P  P6255  1  0.80938143  0.87995577  0.48863345  1.0
  P  P6256  1  0.92049254  0.00495577  0.48863345  1.0
  P  P6257  1  0.92049254  0.12995577  0.48863345  1.0
  P  P6258  1  0.92049254  0.25495577  0.48863345  1.0
  P  P6259  1  0.92049254  0.37995577  0.48863345  1.0
  P  P6260  1  0.92049254  0.50495577  0.48863345  1.0
  P  P6261  1  0.92049254  0.62995577  0.48863345  1.0
  P  P6262  1  0.92049254  0.75495577  0.48863345  1.0
  P  P6263  1  0.92049254  0.87995577  0.48863345  1.0
  P  P6264  1  0.00514862  0.00495577  0.44101441  1.0
  P  P6265  1  0.00514862  0.12995577  0.44101441  1.0
  P  P6266  1  0.00514862  0.25495577  0.44101441  1.0
  P  P6267  1  0.00514862  0.37995577  0.44101441  1.0
  P  P6268  1  0.00514862  0.50495577  0.44101441  1.0
  P  P6269  1  0.00514862  0.62995577  0.44101441  1.0
  P  P6270  1  0.00514862  0.75495577  0.44101441  1.0
  P  P6271  1  0.00514862  0.87995577  0.44101441  1.0
  P  P6272  1  0.11625974  0.00495577  0.44101441  1.0
  P  P6273  1  0.11625974  0.12995577  0.44101441  1.0
  P  P6274  1  0.11625974  0.25495577  0.44101441  1.0
  P  P6275  1  0.11625974  0.37995577  0.44101441  1.0
  P  P6276  1  0.11625974  0.50495577  0.44101441  1.0
  P  P6277  1  0.11625974  0.62995577  0.44101441  1.0
  P  P6278  1  0.11625974  0.75495577  0.44101441  1.0
  P  P6279  1  0.11625974  0.87995577  0.44101441  1.0
  P  P6280  1  0.22737085  0.00495577  0.44101441  1.0
  P  P6281  1  0.22737085  0.12995577  0.44101441  1.0
  P  P6282  1  0.22737085  0.25495577  0.44101441  1.0
  P  P6283  1  0.22737085  0.37995577  0.44101441  1.0
  P  P6284  1  0.22737085  0.50495577  0.44101441  1.0
  P  P6285  1  0.22737085  0.62995577  0.44101441  1.0
  P  P6286  1  0.22737085  0.75495577  0.44101441  1.0
  P  P6287  1  0.22737085  0.87995577  0.44101441  1.0
  P  P6288  1  0.33848196  0.00495577  0.44101441  1.0
  P  P6289  1  0.33848196  0.12995577  0.44101441  1.0
  P  P6290  1  0.33848196  0.25495577  0.44101441  1.0
  P  P6291  1  0.33848196  0.37995577  0.44101441  1.0
  P  P6292  1  0.33848196  0.50495577  0.44101441  1.0
  P  P6293  1  0.33848196  0.62995577  0.44101441  1.0
  P  P6294  1  0.33848196  0.75495577  0.44101441  1.0
  P  P6295  1  0.33848196  0.87995577  0.44101441  1.0
  P  P6296  1  0.44959307  0.00495577  0.44101441  1.0
  P  P6297  1  0.44959307  0.12995577  0.44101441  1.0
  P  P6298  1  0.44959307  0.25495577  0.44101441  1.0
  P  P6299  1  0.44959307  0.37995577  0.44101441  1.0
  P  P6300  1  0.44959307  0.50495577  0.44101441  1.0
  P  P6301  1  0.44959307  0.62995577  0.44101441  1.0
  P  P6302  1  0.44959307  0.75495577  0.44101441  1.0
  P  P6303  1  0.44959307  0.87995577  0.44101441  1.0
  P  P6304  1  0.56070418  0.00495577  0.44101441  1.0
  P  P6305  1  0.56070418  0.12995577  0.44101441  1.0
  P  P6306  1  0.56070418  0.25495577  0.44101441  1.0
  P  P6307  1  0.56070418  0.37995577  0.44101441  1.0
  P  P6308  1  0.56070418  0.50495577  0.44101441  1.0
  P  P6309  1  0.56070418  0.62995577  0.44101441  1.0
  P  P6310  1  0.56070418  0.75495577  0.44101441  1.0
  P  P6311  1  0.56070418  0.87995577  0.44101441  1.0
  P  P6312  1  0.67181529  0.00495577  0.44101441  1.0
  P  P6313  1  0.67181529  0.12995577  0.44101441  1.0
  P  P6314  1  0.67181529  0.25495577  0.44101441  1.0
  P  P6315  1  0.67181529  0.37995577  0.44101441  1.0
  P  P6316  1  0.67181529  0.50495577  0.44101441  1.0
  P  P6317  1  0.67181529  0.62995577  0.44101441  1.0
  P  P6318  1  0.67181529  0.75495577  0.44101441  1.0
  P  P6319  1  0.67181529  0.87995577  0.44101441  1.0
  P  P6320  1  0.78292640  0.00495577  0.44101441  1.0
  P  P6321  1  0.78292640  0.12995577  0.44101441  1.0
  P  P6322  1  0.78292640  0.25495577  0.44101441  1.0
  P  P6323  1  0.78292640  0.37995577  0.44101441  1.0
  P  P6324  1  0.78292640  0.50495577  0.44101441  1.0
  P  P6325  1  0.78292640  0.62995577  0.44101441  1.0
  P  P6326  1  0.78292640  0.75495577  0.44101441  1.0
  P  P6327  1  0.78292640  0.87995577  0.44101441  1.0
  P  P6328  1  0.89403751  0.00495577  0.44101441  1.0
  P  P6329  1  0.89403751  0.12995577  0.44101441  1.0
  P  P6330  1  0.89403751  0.25495577  0.44101441  1.0
  P  P6331  1  0.89403751  0.37995577  0.44101441  1.0
  P  P6332  1  0.89403751  0.50495577  0.44101441  1.0
  P  P6333  1  0.89403751  0.62995577  0.44101441  1.0
  P  P6334  1  0.89403751  0.75495577  0.44101441  1.0
  P  P6335  1  0.89403751  0.87995577  0.44101441  1.0
  P  P6336  1  0.05461316  0.06745577  0.38194061  1.0
  P  P6337  1  0.05461316  0.19245577  0.38194061  1.0
  P  P6338  1  0.05461316  0.31745577  0.38194061  1.0
  P  P6339  1  0.05461316  0.44245577  0.38194061  1.0
  P  P6340  1  0.05461316  0.56745577  0.38194061  1.0
  P  P6341  1  0.05461316  0.69245577  0.38194061  1.0
  P  P6342  1  0.05461316  0.81745577  0.38194061  1.0
  P  P6343  1  0.05461316  0.94245577  0.38194061  1.0
  P  P6344  1  0.16572427  0.06745577  0.38194061  1.0
  P  P6345  1  0.16572427  0.19245577  0.38194061  1.0
  P  P6346  1  0.16572427  0.31745577  0.38194061  1.0
  P  P6347  1  0.16572427  0.44245577  0.38194061  1.0
  P  P6348  1  0.16572427  0.56745577  0.38194061  1.0
  P  P6349  1  0.16572427  0.69245577  0.38194061  1.0
  P  P6350  1  0.16572427  0.81745577  0.38194061  1.0
  P  P6351  1  0.16572427  0.94245577  0.38194061  1.0
  P  P6352  1  0.27683538  0.06745577  0.38194061  1.0
  P  P6353  1  0.27683538  0.19245577  0.38194061  1.0
  P  P6354  1  0.27683538  0.31745577  0.38194061  1.0
  P  P6355  1  0.27683538  0.44245577  0.38194061  1.0
  P  P6356  1  0.27683538  0.56745577  0.38194061  1.0
  P  P6357  1  0.27683538  0.69245577  0.38194061  1.0
  P  P6358  1  0.27683538  0.81745577  0.38194061  1.0
  P  P6359  1  0.27683538  0.94245577  0.38194061  1.0
  P  P6360  1  0.38794649  0.06745577  0.38194061  1.0
  P  P6361  1  0.38794649  0.19245577  0.38194061  1.0
  P  P6362  1  0.38794649  0.31745577  0.38194061  1.0
  P  P6363  1  0.38794649  0.44245577  0.38194061  1.0
  P  P6364  1  0.38794649  0.56745577  0.38194061  1.0
  P  P6365  1  0.38794649  0.69245577  0.38194061  1.0
  P  P6366  1  0.38794649  0.81745577  0.38194061  1.0
  P  P6367  1  0.38794649  0.94245577  0.38194061  1.0
  P  P6368  1  0.49905760  0.06745577  0.38194061  1.0
  P  P6369  1  0.49905760  0.19245577  0.38194061  1.0
  P  P6370  1  0.49905760  0.31745577  0.38194061  1.0
  P  P6371  1  0.49905760  0.44245577  0.38194061  1.0
  P  P6372  1  0.49905760  0.56745577  0.38194061  1.0
  P  P6373  1  0.49905760  0.69245577  0.38194061  1.0
  P  P6374  1  0.49905760  0.81745577  0.38194061  1.0
  P  P6375  1  0.49905760  0.94245577  0.38194061  1.0
  P  P6376  1  0.61016871  0.06745577  0.38194061  1.0
  P  P6377  1  0.61016871  0.19245577  0.38194061  1.0
  P  P6378  1  0.61016871  0.31745577  0.38194061  1.0
  P  P6379  1  0.61016871  0.44245577  0.38194061  1.0
  P  P6380  1  0.61016871  0.56745577  0.38194061  1.0
  P  P6381  1  0.61016871  0.69245577  0.38194061  1.0
  P  P6382  1  0.61016871  0.81745577  0.38194061  1.0
  P  P6383  1  0.61016871  0.94245577  0.38194061  1.0
  P  P6384  1  0.72127982  0.06745577  0.38194061  1.0
  P  P6385  1  0.72127982  0.19245577  0.38194061  1.0
  P  P6386  1  0.72127982  0.31745577  0.38194061  1.0
  P  P6387  1  0.72127982  0.44245577  0.38194061  1.0
  P  P6388  1  0.72127982  0.56745577  0.38194061  1.0
  P  P6389  1  0.72127982  0.69245577  0.38194061  1.0
  P  P6390  1  0.72127982  0.81745577  0.38194061  1.0
  P  P6391  1  0.72127982  0.94245577  0.38194061  1.0
  P  P6392  1  0.83239093  0.06745577  0.38194061  1.0
  P  P6393  1  0.83239093  0.19245577  0.38194061  1.0
  P  P6394  1  0.83239093  0.31745577  0.38194061  1.0
  P  P6395  1  0.83239093  0.44245577  0.38194061  1.0
  P  P6396  1  0.83239093  0.56745577  0.38194061  1.0
  P  P6397  1  0.83239093  0.69245577  0.38194061  1.0
  P  P6398  1  0.83239093  0.81745577  0.38194061  1.0
  P  P6399  1  0.83239093  0.94245577  0.38194061  1.0
  P  P6400  1  0.94350205  0.06745577  0.38194061  1.0
  P  P6401  1  0.94350205  0.19245577  0.38194061  1.0
  P  P6402  1  0.94350205  0.31745577  0.38194061  1.0
  P  P6403  1  0.94350205  0.44245577  0.38194061  1.0
  P  P6404  1  0.94350205  0.56745577  0.38194061  1.0
  P  P6405  1  0.94350205  0.69245577  0.38194061  1.0
  P  P6406  1  0.94350205  0.81745577  0.38194061  1.0
  P  P6407  1  0.94350205  0.94245577  0.38194061  1.0
  P  P6408  1  0.10752321  0.06745577  0.47717870  1.0
  P  P6409  1  0.10752321  0.19245577  0.47717870  1.0
  P  P6410  1  0.10752321  0.31745577  0.47717870  1.0
  P  P6411  1  0.10752321  0.44245577  0.47717870  1.0
  P  P6412  1  0.10752321  0.56745577  0.47717870  1.0
  P  P6413  1  0.10752321  0.69245577  0.47717870  1.0
  P  P6414  1  0.10752321  0.81745577  0.47717870  1.0
  P  P6415  1  0.10752321  0.94245577  0.47717870  1.0
  P  P6416  1  0.21863432  0.06745577  0.47717870  1.0
  P  P6417  1  0.21863432  0.19245577  0.47717870  1.0
  P  P6418  1  0.21863432  0.31745577  0.47717870  1.0
  P  P6419  1  0.21863432  0.44245577  0.47717870  1.0
  P  P6420  1  0.21863432  0.56745577  0.47717870  1.0
  P  P6421  1  0.21863432  0.69245577  0.47717870  1.0
  P  P6422  1  0.21863432  0.81745577  0.47717870  1.0
  P  P6423  1  0.21863432  0.94245577  0.47717870  1.0
  P  P6424  1  0.32974543  0.06745577  0.47717870  1.0
  P  P6425  1  0.32974543  0.19245577  0.47717870  1.0
  P  P6426  1  0.32974543  0.31745577  0.47717870  1.0
  P  P6427  1  0.32974543  0.44245577  0.47717870  1.0
  P  P6428  1  0.32974543  0.56745577  0.47717870  1.0
  P  P6429  1  0.32974543  0.69245577  0.47717870  1.0
  P  P6430  1  0.32974543  0.81745577  0.47717870  1.0
  P  P6431  1  0.32974543  0.94245577  0.47717870  1.0
  P  P6432  1  0.44085654  0.06745577  0.47717870  1.0
  P  P6433  1  0.44085654  0.19245577  0.47717870  1.0
  P  P6434  1  0.44085654  0.31745577  0.47717870  1.0
  P  P6435  1  0.44085654  0.44245577  0.47717870  1.0
  P  P6436  1  0.44085654  0.56745577  0.47717870  1.0
  P  P6437  1  0.44085654  0.69245577  0.47717870  1.0
  P  P6438  1  0.44085654  0.81745577  0.47717870  1.0
  P  P6439  1  0.44085654  0.94245577  0.47717870  1.0
  P  P6440  1  0.55196765  0.06745577  0.47717870  1.0
  P  P6441  1  0.55196765  0.19245577  0.47717870  1.0
  P  P6442  1  0.55196765  0.31745577  0.47717870  1.0
  P  P6443  1  0.55196765  0.44245577  0.47717870  1.0
  P  P6444  1  0.55196765  0.56745577  0.47717870  1.0
  P  P6445  1  0.55196765  0.69245577  0.47717870  1.0
  P  P6446  1  0.55196765  0.81745577  0.47717870  1.0
  P  P6447  1  0.55196765  0.94245577  0.47717870  1.0
  P  P6448  1  0.66307876  0.06745577  0.47717870  1.0
  P  P6449  1  0.66307876  0.19245577  0.47717870  1.0
  P  P6450  1  0.66307876  0.31745577  0.47717870  1.0
  P  P6451  1  0.66307876  0.44245577  0.47717870  1.0
  P  P6452  1  0.66307876  0.56745577  0.47717870  1.0
  P  P6453  1  0.66307876  0.69245577  0.47717870  1.0
  P  P6454  1  0.66307876  0.81745577  0.47717870  1.0
  P  P6455  1  0.66307876  0.94245577  0.47717870  1.0
  P  P6456  1  0.77418988  0.06745577  0.47717870  1.0
  P  P6457  1  0.77418988  0.19245577  0.47717870  1.0
  P  P6458  1  0.77418988  0.31745577  0.47717870  1.0
  P  P6459  1  0.77418988  0.44245577  0.47717870  1.0
  P  P6460  1  0.77418988  0.56745577  0.47717870  1.0
  P  P6461  1  0.77418988  0.69245577  0.47717870  1.0
  P  P6462  1  0.77418988  0.81745577  0.47717870  1.0
  P  P6463  1  0.77418988  0.94245577  0.47717870  1.0
  P  P6464  1  0.88530099  0.06745577  0.47717870  1.0
  P  P6465  1  0.88530099  0.19245577  0.47717870  1.0
  P  P6466  1  0.88530099  0.31745577  0.47717870  1.0
  P  P6467  1  0.88530099  0.44245577  0.47717870  1.0
  P  P6468  1  0.88530099  0.56745577  0.47717870  1.0
  P  P6469  1  0.88530099  0.69245577  0.47717870  1.0
  P  P6470  1  0.88530099  0.81745577  0.47717870  1.0
  P  P6471  1  0.88530099  0.94245577  0.47717870  1.0
  P  P6472  1  0.99641210  0.06745577  0.47717870  1.0
  P  P6473  1  0.99641210  0.19245577  0.47717870  1.0
  P  P6474  1  0.99641210  0.31745577  0.47717870  1.0
  P  P6475  1  0.99641210  0.44245577  0.47717870  1.0
  P  P6476  1  0.99641210  0.56745577  0.47717870  1.0
  P  P6477  1  0.99641210  0.69245577  0.47717870  1.0
  P  P6478  1  0.99641210  0.81745577  0.47717870  1.0
  P  P6479  1  0.99641210  0.94245577  0.47717870  1.0
  P  P6480  1  0.08106818  0.06745577  0.42955965  1.0
  P  P6481  1  0.08106818  0.19245577  0.42955965  1.0
  P  P6482  1  0.08106818  0.31745577  0.42955965  1.0
  P  P6483  1  0.08106818  0.44245577  0.42955965  1.0
  P  P6484  1  0.08106818  0.56745577  0.42955965  1.0
  P  P6485  1  0.08106818  0.69245577  0.42955965  1.0
  P  P6486  1  0.08106818  0.81745577  0.42955965  1.0
  P  P6487  1  0.08106818  0.94245577  0.42955965  1.0
  P  P6488  1  0.19217929  0.06745577  0.42955965  1.0
  P  P6489  1  0.19217929  0.19245577  0.42955965  1.0
  P  P6490  1  0.19217929  0.31745577  0.42955965  1.0
  P  P6491  1  0.19217929  0.44245577  0.42955965  1.0
  P  P6492  1  0.19217929  0.56745577  0.42955965  1.0
  P  P6493  1  0.19217929  0.69245577  0.42955965  1.0
  P  P6494  1  0.19217929  0.81745577  0.42955965  1.0
  P  P6495  1  0.19217929  0.94245577  0.42955965  1.0
  P  P6496  1  0.30329041  0.06745577  0.42955965  1.0
  P  P6497  1  0.30329041  0.19245577  0.42955965  1.0
  P  P6498  1  0.30329041  0.31745577  0.42955965  1.0
  P  P6499  1  0.30329041  0.44245577  0.42955965  1.0
  P  P6500  1  0.30329041  0.56745577  0.42955965  1.0
  P  P6501  1  0.30329041  0.69245577  0.42955965  1.0
  P  P6502  1  0.30329041  0.81745577  0.42955965  1.0
  P  P6503  1  0.30329041  0.94245577  0.42955965  1.0
  P  P6504  1  0.41440152  0.06745577  0.42955965  1.0
  P  P6505  1  0.41440152  0.19245577  0.42955965  1.0
  P  P6506  1  0.41440152  0.31745577  0.42955965  1.0
  P  P6507  1  0.41440152  0.44245577  0.42955965  1.0
  P  P6508  1  0.41440152  0.56745577  0.42955965  1.0
  P  P6509  1  0.41440152  0.69245577  0.42955965  1.0
  P  P6510  1  0.41440152  0.81745577  0.42955965  1.0
  P  P6511  1  0.41440152  0.94245577  0.42955965  1.0
  P  P6512  1  0.52551263  0.06745577  0.42955965  1.0
  P  P6513  1  0.52551263  0.19245577  0.42955965  1.0
  P  P6514  1  0.52551263  0.31745577  0.42955965  1.0
  P  P6515  1  0.52551263  0.44245577  0.42955965  1.0
  P  P6516  1  0.52551263  0.56745577  0.42955965  1.0
  P  P6517  1  0.52551263  0.69245577  0.42955965  1.0
  P  P6518  1  0.52551263  0.81745577  0.42955965  1.0
  P  P6519  1  0.52551263  0.94245577  0.42955965  1.0
  P  P6520  1  0.63662374  0.06745577  0.42955965  1.0
  P  P6521  1  0.63662374  0.19245577  0.42955965  1.0
  P  P6522  1  0.63662374  0.31745577  0.42955965  1.0
  P  P6523  1  0.63662374  0.44245577  0.42955965  1.0
  P  P6524  1  0.63662374  0.56745577  0.42955965  1.0
  P  P6525  1  0.63662374  0.69245577  0.42955965  1.0
  P  P6526  1  0.63662374  0.81745577  0.42955965  1.0
  P  P6527  1  0.63662374  0.94245577  0.42955965  1.0
  P  P6528  1  0.74773485  0.06745577  0.42955965  1.0
  P  P6529  1  0.74773485  0.19245577  0.42955965  1.0
  P  P6530  1  0.74773485  0.31745577  0.42955965  1.0
  P  P6531  1  0.74773485  0.44245577  0.42955965  1.0
  P  P6532  1  0.74773485  0.56745577  0.42955965  1.0
  P  P6533  1  0.74773485  0.69245577  0.42955965  1.0
  P  P6534  1  0.74773485  0.81745577  0.42955965  1.0
  P  P6535  1  0.74773485  0.94245577  0.42955965  1.0
  P  P6536  1  0.85884596  0.06745577  0.42955965  1.0
  P  P6537  1  0.85884596  0.19245577  0.42955965  1.0
  P  P6538  1  0.85884596  0.31745577  0.42955965  1.0
  P  P6539  1  0.85884596  0.44245577  0.42955965  1.0
  P  P6540  1  0.85884596  0.56745577  0.42955965  1.0
  P  P6541  1  0.85884596  0.69245577  0.42955965  1.0
  P  P6542  1  0.85884596  0.81745577  0.42955965  1.0
  P  P6543  1  0.85884596  0.94245577  0.42955965  1.0
  P  P6544  1  0.96995707  0.06745577  0.42955965  1.0
  P  P6545  1  0.96995707  0.19245577  0.42955965  1.0
  P  P6546  1  0.96995707  0.31745577  0.42955965  1.0
  P  P6547  1  0.96995707  0.44245577  0.42955965  1.0
  P  P6548  1  0.96995707  0.56745577  0.42955965  1.0
  P  P6549  1  0.96995707  0.69245577  0.42955965  1.0
  P  P6550  1  0.96995707  0.81745577  0.42955965  1.0
  P  P6551  1  0.96995707  0.94245577  0.42955965  1.0
  P  P6552  1  0.04747667  0.05754423  0.41720488  1.0
  P  P6553  1  0.04747667  0.18254423  0.41720488  1.0
  P  P6554  1  0.04747667  0.30754423  0.41720488  1.0
  P  P6555  1  0.04747667  0.43254423  0.41720488  1.0
  P  P6556  1  0.04747667  0.55754423  0.41720488  1.0
  P  P6557  1  0.04747667  0.68254423  0.41720488  1.0
  P  P6558  1  0.04747667  0.80754423  0.41720488  1.0
  P  P6559  1  0.04747667  0.93254423  0.41720488  1.0
  P  P6560  1  0.15858778  0.05754423  0.41720488  1.0
  P  P6561  1  0.15858778  0.18254423  0.41720488  1.0
  P  P6562  1  0.15858778  0.30754423  0.41720488  1.0
  P  P6563  1  0.15858778  0.43254423  0.41720488  1.0
  P  P6564  1  0.15858778  0.55754423  0.41720488  1.0
  P  P6565  1  0.15858778  0.68254423  0.41720488  1.0
  P  P6566  1  0.15858778  0.80754423  0.41720488  1.0
  P  P6567  1  0.15858778  0.93254423  0.41720488  1.0
  P  P6568  1  0.26969889  0.05754423  0.41720488  1.0
  P  P6569  1  0.26969889  0.18254423  0.41720488  1.0
  P  P6570  1  0.26969889  0.30754423  0.41720488  1.0
  P  P6571  1  0.26969889  0.43254423  0.41720488  1.0
  P  P6572  1  0.26969889  0.55754423  0.41720488  1.0
  P  P6573  1  0.26969889  0.68254423  0.41720488  1.0
  P  P6574  1  0.26969889  0.80754423  0.41720488  1.0
  P  P6575  1  0.26969889  0.93254423  0.41720488  1.0
  P  P6576  1  0.38081000  0.05754423  0.41720488  1.0
  P  P6577  1  0.38081000  0.18254423  0.41720488  1.0
  P  P6578  1  0.38081000  0.30754423  0.41720488  1.0
  P  P6579  1  0.38081000  0.43254423  0.41720488  1.0
  P  P6580  1  0.38081000  0.55754423  0.41720488  1.0
  P  P6581  1  0.38081000  0.68254423  0.41720488  1.0
  P  P6582  1  0.38081000  0.80754423  0.41720488  1.0
  P  P6583  1  0.38081000  0.93254423  0.41720488  1.0
  P  P6584  1  0.49192111  0.05754423  0.41720488  1.0
  P  P6585  1  0.49192111  0.18254423  0.41720488  1.0
  P  P6586  1  0.49192111  0.30754423  0.41720488  1.0
  P  P6587  1  0.49192111  0.43254423  0.41720488  1.0
  P  P6588  1  0.49192111  0.55754423  0.41720488  1.0
  P  P6589  1  0.49192111  0.68254423  0.41720488  1.0
  P  P6590  1  0.49192111  0.80754423  0.41720488  1.0
  P  P6591  1  0.49192111  0.93254423  0.41720488  1.0
  P  P6592  1  0.60303222  0.05754423  0.41720488  1.0
  P  P6593  1  0.60303222  0.18254423  0.41720488  1.0
  P  P6594  1  0.60303222  0.30754423  0.41720488  1.0
  P  P6595  1  0.60303222  0.43254423  0.41720488  1.0
  P  P6596  1  0.60303222  0.55754423  0.41720488  1.0
  P  P6597  1  0.60303222  0.68254423  0.41720488  1.0
  P  P6598  1  0.60303222  0.80754423  0.41720488  1.0
  P  P6599  1  0.60303222  0.93254423  0.41720488  1.0
  P  P6600  1  0.71414333  0.05754423  0.41720488  1.0
  P  P6601  1  0.71414333  0.18254423  0.41720488  1.0
  P  P6602  1  0.71414333  0.30754423  0.41720488  1.0
  P  P6603  1  0.71414333  0.43254423  0.41720488  1.0
  P  P6604  1  0.71414333  0.55754423  0.41720488  1.0
  P  P6605  1  0.71414333  0.68254423  0.41720488  1.0
  P  P6606  1  0.71414333  0.80754423  0.41720488  1.0
  P  P6607  1  0.71414333  0.93254423  0.41720488  1.0
  P  P6608  1  0.82525444  0.05754423  0.41720488  1.0
  P  P6609  1  0.82525444  0.18254423  0.41720488  1.0
  P  P6610  1  0.82525444  0.30754423  0.41720488  1.0
  P  P6611  1  0.82525444  0.43254423  0.41720488  1.0
  P  P6612  1  0.82525444  0.55754423  0.41720488  1.0
  P  P6613  1  0.82525444  0.68254423  0.41720488  1.0
  P  P6614  1  0.82525444  0.80754423  0.41720488  1.0
  P  P6615  1  0.82525444  0.93254423  0.41720488  1.0
  P  P6616  1  0.93636556  0.05754423  0.41720488  1.0
  P  P6617  1  0.93636556  0.18254423  0.41720488  1.0
  P  P6618  1  0.93636556  0.30754423  0.41720488  1.0
  P  P6619  1  0.93636556  0.43254423  0.41720488  1.0
  P  P6620  1  0.93636556  0.55754423  0.41720488  1.0
  P  P6621  1  0.93636556  0.68254423  0.41720488  1.0
  P  P6622  1  0.93636556  0.80754423  0.41720488  1.0
  P  P6623  1  0.93636556  0.93254423  0.41720488  1.0
  P  P6624  1  0.02102164  0.05754423  0.36958583  1.0
  P  P6625  1  0.02102164  0.18254423  0.36958583  1.0
  P  P6626  1  0.02102164  0.30754423  0.36958583  1.0
  P  P6627  1  0.02102164  0.43254423  0.36958583  1.0
  P  P6628  1  0.02102164  0.55754423  0.36958583  1.0
  P  P6629  1  0.02102164  0.68254423  0.36958583  1.0
  P  P6630  1  0.02102164  0.80754423  0.36958583  1.0
  P  P6631  1  0.02102164  0.93254423  0.36958583  1.0
  P  P6632  1  0.13213275  0.05754423  0.36958583  1.0
  P  P6633  1  0.13213275  0.18254423  0.36958583  1.0
  P  P6634  1  0.13213275  0.30754423  0.36958583  1.0
  P  P6635  1  0.13213275  0.43254423  0.36958583  1.0
  P  P6636  1  0.13213275  0.55754423  0.36958583  1.0
  P  P6637  1  0.13213275  0.68254423  0.36958583  1.0
  P  P6638  1  0.13213275  0.80754423  0.36958583  1.0
  P  P6639  1  0.13213275  0.93254423  0.36958583  1.0
  P  P6640  1  0.24324386  0.05754423  0.36958583  1.0
  P  P6641  1  0.24324386  0.18254423  0.36958583  1.0
  P  P6642  1  0.24324386  0.30754423  0.36958583  1.0
  P  P6643  1  0.24324386  0.43254423  0.36958583  1.0
  P  P6644  1  0.24324386  0.55754423  0.36958583  1.0
  P  P6645  1  0.24324386  0.68254423  0.36958583  1.0
  P  P6646  1  0.24324386  0.80754423  0.36958583  1.0
  P  P6647  1  0.24324386  0.93254423  0.36958583  1.0
  P  P6648  1  0.35435497  0.05754423  0.36958583  1.0
  P  P6649  1  0.35435497  0.18254423  0.36958583  1.0
  P  P6650  1  0.35435497  0.30754423  0.36958583  1.0
  P  P6651  1  0.35435497  0.43254423  0.36958583  1.0
  P  P6652  1  0.35435497  0.55754423  0.36958583  1.0
  P  P6653  1  0.35435497  0.68254423  0.36958583  1.0
  P  P6654  1  0.35435497  0.80754423  0.36958583  1.0
  P  P6655  1  0.35435497  0.93254423  0.36958583  1.0
  P  P6656  1  0.46546609  0.05754423  0.36958583  1.0
  P  P6657  1  0.46546609  0.18254423  0.36958583  1.0
  P  P6658  1  0.46546609  0.30754423  0.36958583  1.0
  P  P6659  1  0.46546609  0.43254423  0.36958583  1.0
  P  P6660  1  0.46546609  0.55754423  0.36958583  1.0
  P  P6661  1  0.46546609  0.68254423  0.36958583  1.0
  P  P6662  1  0.46546609  0.80754423  0.36958583  1.0
  P  P6663  1  0.46546609  0.93254423  0.36958583  1.0
  P  P6664  1  0.57657720  0.05754423  0.36958583  1.0
  P  P6665  1  0.57657720  0.18254423  0.36958583  1.0
  P  P6666  1  0.57657720  0.30754423  0.36958583  1.0
  P  P6667  1  0.57657720  0.43254423  0.36958583  1.0
  P  P6668  1  0.57657720  0.55754423  0.36958583  1.0
  P  P6669  1  0.57657720  0.68254423  0.36958583  1.0
  P  P6670  1  0.57657720  0.80754423  0.36958583  1.0
  P  P6671  1  0.57657720  0.93254423  0.36958583  1.0
  P  P6672  1  0.68768831  0.05754423  0.36958583  1.0
  P  P6673  1  0.68768831  0.18254423  0.36958583  1.0
  P  P6674  1  0.68768831  0.30754423  0.36958583  1.0
  P  P6675  1  0.68768831  0.43254423  0.36958583  1.0
  P  P6676  1  0.68768831  0.55754423  0.36958583  1.0
  P  P6677  1  0.68768831  0.68254423  0.36958583  1.0
  P  P6678  1  0.68768831  0.80754423  0.36958583  1.0
  P  P6679  1  0.68768831  0.93254423  0.36958583  1.0
  P  P6680  1  0.79879942  0.05754423  0.36958583  1.0
  P  P6681  1  0.79879942  0.18254423  0.36958583  1.0
  P  P6682  1  0.79879942  0.30754423  0.36958583  1.0
  P  P6683  1  0.79879942  0.43254423  0.36958583  1.0
  P  P6684  1  0.79879942  0.55754423  0.36958583  1.0
  P  P6685  1  0.79879942  0.68254423  0.36958583  1.0
  P  P6686  1  0.79879942  0.80754423  0.36958583  1.0
  P  P6687  1  0.79879942  0.93254423  0.36958583  1.0
  P  P6688  1  0.90991053  0.05754423  0.36958583  1.0
  P  P6689  1  0.90991053  0.18254423  0.36958583  1.0
  P  P6690  1  0.90991053  0.30754423  0.36958583  1.0
  P  P6691  1  0.90991053  0.43254423  0.36958583  1.0
  P  P6692  1  0.90991053  0.55754423  0.36958583  1.0
  P  P6693  1  0.90991053  0.68254423  0.36958583  1.0
  P  P6694  1  0.90991053  0.80754423  0.36958583  1.0
  P  P6695  1  0.90991053  0.93254423  0.36958583  1.0
  P  P6696  1  0.07393169  0.05754423  0.46482393  1.0
  P  P6697  1  0.07393169  0.18254423  0.46482393  1.0
  P  P6698  1  0.07393169  0.30754423  0.46482393  1.0
  P  P6699  1  0.07393169  0.43254423  0.46482393  1.0
  P  P6700  1  0.07393169  0.55754423  0.46482393  1.0
  P  P6701  1  0.07393169  0.68254423  0.46482393  1.0
  P  P6702  1  0.07393169  0.80754423  0.46482393  1.0
  P  P6703  1  0.07393169  0.93254423  0.46482393  1.0
  P  P6704  1  0.18504280  0.05754423  0.46482393  1.0
  P  P6705  1  0.18504280  0.18254423  0.46482393  1.0
  P  P6706  1  0.18504280  0.30754423  0.46482393  1.0
  P  P6707  1  0.18504280  0.43254423  0.46482393  1.0
  P  P6708  1  0.18504280  0.55754423  0.46482393  1.0
  P  P6709  1  0.18504280  0.68254423  0.46482393  1.0
  P  P6710  1  0.18504280  0.80754423  0.46482393  1.0
  P  P6711  1  0.18504280  0.93254423  0.46482393  1.0
  P  P6712  1  0.29615392  0.05754423  0.46482393  1.0
  P  P6713  1  0.29615392  0.18254423  0.46482393  1.0
  P  P6714  1  0.29615392  0.30754423  0.46482393  1.0
  P  P6715  1  0.29615392  0.43254423  0.46482393  1.0
  P  P6716  1  0.29615392  0.55754423  0.46482393  1.0
  P  P6717  1  0.29615392  0.68254423  0.46482393  1.0
  P  P6718  1  0.29615392  0.80754423  0.46482393  1.0
  P  P6719  1  0.29615392  0.93254423  0.46482393  1.0
  P  P6720  1  0.40726503  0.05754423  0.46482393  1.0
  P  P6721  1  0.40726503  0.18254423  0.46482393  1.0
  P  P6722  1  0.40726503  0.30754423  0.46482393  1.0
  P  P6723  1  0.40726503  0.43254423  0.46482393  1.0
  P  P6724  1  0.40726503  0.55754423  0.46482393  1.0
  P  P6725  1  0.40726503  0.68254423  0.46482393  1.0
  P  P6726  1  0.40726503  0.80754423  0.46482393  1.0
  P  P6727  1  0.40726503  0.93254423  0.46482393  1.0
  P  P6728  1  0.51837614  0.05754423  0.46482393  1.0
  P  P6729  1  0.51837614  0.18254423  0.46482393  1.0
  P  P6730  1  0.51837614  0.30754423  0.46482393  1.0
  P  P6731  1  0.51837614  0.43254423  0.46482393  1.0
  P  P6732  1  0.51837614  0.55754423  0.46482393  1.0
  P  P6733  1  0.51837614  0.68254423  0.46482393  1.0
  P  P6734  1  0.51837614  0.80754423  0.46482393  1.0
  P  P6735  1  0.51837614  0.93254423  0.46482393  1.0
  P  P6736  1  0.62948725  0.05754423  0.46482393  1.0
  P  P6737  1  0.62948725  0.18254423  0.46482393  1.0
  P  P6738  1  0.62948725  0.30754423  0.46482393  1.0
  P  P6739  1  0.62948725  0.43254423  0.46482393  1.0
  P  P6740  1  0.62948725  0.55754423  0.46482393  1.0
  P  P6741  1  0.62948725  0.68254423  0.46482393  1.0
  P  P6742  1  0.62948725  0.80754423  0.46482393  1.0
  P  P6743  1  0.62948725  0.93254423  0.46482393  1.0
  P  P6744  1  0.74059836  0.05754423  0.46482393  1.0
  P  P6745  1  0.74059836  0.18254423  0.46482393  1.0
  P  P6746  1  0.74059836  0.30754423  0.46482393  1.0
  P  P6747  1  0.74059836  0.43254423  0.46482393  1.0
  P  P6748  1  0.74059836  0.55754423  0.46482393  1.0
  P  P6749  1  0.74059836  0.68254423  0.46482393  1.0
  P  P6750  1  0.74059836  0.80754423  0.46482393  1.0
  P  P6751  1  0.74059836  0.93254423  0.46482393  1.0
  P  P6752  1  0.85170947  0.05754423  0.46482393  1.0
  P  P6753  1  0.85170947  0.18254423  0.46482393  1.0
  P  P6754  1  0.85170947  0.30754423  0.46482393  1.0
  P  P6755  1  0.85170947  0.43254423  0.46482393  1.0
  P  P6756  1  0.85170947  0.55754423  0.46482393  1.0
  P  P6757  1  0.85170947  0.68254423  0.46482393  1.0
  P  P6758  1  0.85170947  0.80754423  0.46482393  1.0
  P  P6759  1  0.85170947  0.93254423  0.46482393  1.0
  P  P6760  1  0.96282058  0.05754423  0.46482393  1.0
  P  P6761  1  0.96282058  0.18254423  0.46482393  1.0
  P  P6762  1  0.96282058  0.30754423  0.46482393  1.0
  P  P6763  1  0.96282058  0.43254423  0.46482393  1.0
  P  P6764  1  0.96282058  0.55754423  0.46482393  1.0
  P  P6765  1  0.96282058  0.68254423  0.46482393  1.0
  P  P6766  1  0.96282058  0.80754423  0.46482393  1.0
  P  P6767  1  0.96282058  0.93254423  0.46482393  1.0
  P  P6768  1  0.01847260  0.10787809  0.55851967  1.0
  P  P6769  1  0.01847260  0.23287809  0.55851967  1.0
  P  P6770  1  0.01847260  0.35787809  0.55851967  1.0
  P  P6771  1  0.01847260  0.48287809  0.55851967  1.0
  P  P6772  1  0.01847260  0.60787809  0.55851967  1.0
  P  P6773  1  0.01847260  0.73287809  0.55851967  1.0
  P  P6774  1  0.01847260  0.85787809  0.55851967  1.0
  P  P6775  1  0.01847260  0.98287809  0.55851967  1.0
  P  P6776  1  0.12958371  0.10787809  0.55851967  1.0
  P  P6777  1  0.12958371  0.23287809  0.55851967  1.0
  P  P6778  1  0.12958371  0.35787809  0.55851967  1.0
  P  P6779  1  0.12958371  0.48287809  0.55851967  1.0
  P  P6780  1  0.12958371  0.60787809  0.55851967  1.0
  P  P6781  1  0.12958371  0.73287809  0.55851967  1.0
  P  P6782  1  0.12958371  0.85787809  0.55851967  1.0
  P  P6783  1  0.12958371  0.98287809  0.55851967  1.0
  P  P6784  1  0.24069482  0.10787809  0.55851967  1.0
  P  P6785  1  0.24069482  0.23287809  0.55851967  1.0
  P  P6786  1  0.24069482  0.35787809  0.55851967  1.0
  P  P6787  1  0.24069482  0.48287809  0.55851967  1.0
  P  P6788  1  0.24069482  0.60787809  0.55851967  1.0
  P  P6789  1  0.24069482  0.73287809  0.55851967  1.0
  P  P6790  1  0.24069482  0.85787809  0.55851967  1.0
  P  P6791  1  0.24069482  0.98287809  0.55851967  1.0
  P  P6792  1  0.35180593  0.10787809  0.55851967  1.0
  P  P6793  1  0.35180593  0.23287809  0.55851967  1.0
  P  P6794  1  0.35180593  0.35787809  0.55851967  1.0
  P  P6795  1  0.35180593  0.48287809  0.55851967  1.0
  P  P6796  1  0.35180593  0.60787809  0.55851967  1.0
  P  P6797  1  0.35180593  0.73287809  0.55851967  1.0
  P  P6798  1  0.35180593  0.85787809  0.55851967  1.0
  P  P6799  1  0.35180593  0.98287809  0.55851967  1.0
  P  P6800  1  0.46291704  0.10787809  0.55851967  1.0
  P  P6801  1  0.46291704  0.23287809  0.55851967  1.0
  P  P6802  1  0.46291704  0.35787809  0.55851967  1.0
  P  P6803  1  0.46291704  0.48287809  0.55851967  1.0
  P  P6804  1  0.46291704  0.60787809  0.55851967  1.0
  P  P6805  1  0.46291704  0.73287809  0.55851967  1.0
  P  P6806  1  0.46291704  0.85787809  0.55851967  1.0
  P  P6807  1  0.46291704  0.98287809  0.55851967  1.0
  P  P6808  1  0.57402815  0.10787809  0.55851967  1.0
  P  P6809  1  0.57402815  0.23287809  0.55851967  1.0
  P  P6810  1  0.57402815  0.35787809  0.55851967  1.0
  P  P6811  1  0.57402815  0.48287809  0.55851967  1.0
  P  P6812  1  0.57402815  0.60787809  0.55851967  1.0
  P  P6813  1  0.57402815  0.73287809  0.55851967  1.0
  P  P6814  1  0.57402815  0.85787809  0.55851967  1.0
  P  P6815  1  0.57402815  0.98287809  0.55851967  1.0
  P  P6816  1  0.68513927  0.10787809  0.55851967  1.0
  P  P6817  1  0.68513927  0.23287809  0.55851967  1.0
  P  P6818  1  0.68513927  0.35787809  0.55851967  1.0
  P  P6819  1  0.68513927  0.48287809  0.55851967  1.0
  P  P6820  1  0.68513927  0.60787809  0.55851967  1.0
  P  P6821  1  0.68513927  0.73287809  0.55851967  1.0
  P  P6822  1  0.68513927  0.85787809  0.55851967  1.0
  P  P6823  1  0.68513927  0.98287809  0.55851967  1.0
  P  P6824  1  0.79625038  0.10787809  0.55851967  1.0
  P  P6825  1  0.79625038  0.23287809  0.55851967  1.0
  P  P6826  1  0.79625038  0.35787809  0.55851967  1.0
  P  P6827  1  0.79625038  0.48287809  0.55851967  1.0
  P  P6828  1  0.79625038  0.60787809  0.55851967  1.0
  P  P6829  1  0.79625038  0.73287809  0.55851967  1.0
  P  P6830  1  0.79625038  0.85787809  0.55851967  1.0
  P  P6831  1  0.79625038  0.98287809  0.55851967  1.0
  P  P6832  1  0.90736149  0.10787809  0.55851967  1.0
  P  P6833  1  0.90736149  0.23287809  0.55851967  1.0
  P  P6834  1  0.90736149  0.35787809  0.55851967  1.0
  P  P6835  1  0.90736149  0.48287809  0.55851967  1.0
  P  P6836  1  0.90736149  0.60787809  0.55851967  1.0
  P  P6837  1  0.90736149  0.73287809  0.55851967  1.0
  P  P6838  1  0.90736149  0.85787809  0.55851967  1.0
  P  P6839  1  0.90736149  0.98287809  0.55851967  1.0
  P  P6840  1  0.10312868  0.10787809  0.51090062  1.0
  P  P6841  1  0.10312868  0.23287809  0.51090062  1.0
  P  P6842  1  0.10312868  0.35787809  0.51090062  1.0
  P  P6843  1  0.10312868  0.48287809  0.51090062  1.0
  P  P6844  1  0.10312868  0.60787809  0.51090062  1.0
  P  P6845  1  0.10312868  0.73287809  0.51090062  1.0
  P  P6846  1  0.10312868  0.85787809  0.51090062  1.0
  P  P6847  1  0.10312868  0.98287809  0.51090062  1.0
  P  P6848  1  0.21423980  0.10787809  0.51090062  1.0
  P  P6849  1  0.21423980  0.23287809  0.51090062  1.0
  P  P6850  1  0.21423980  0.35787809  0.51090062  1.0
  P  P6851  1  0.21423980  0.48287809  0.51090062  1.0
  P  P6852  1  0.21423980  0.60787809  0.51090062  1.0
  P  P6853  1  0.21423980  0.73287809  0.51090062  1.0
  P  P6854  1  0.21423980  0.85787809  0.51090062  1.0
  P  P6855  1  0.21423980  0.98287809  0.51090062  1.0
  P  P6856  1  0.32535091  0.10787809  0.51090062  1.0
  P  P6857  1  0.32535091  0.23287809  0.51090062  1.0
  P  P6858  1  0.32535091  0.35787809  0.51090062  1.0
  P  P6859  1  0.32535091  0.48287809  0.51090062  1.0
  P  P6860  1  0.32535091  0.60787809  0.51090062  1.0
  P  P6861  1  0.32535091  0.73287809  0.51090062  1.0
  P  P6862  1  0.32535091  0.85787809  0.51090062  1.0
  P  P6863  1  0.32535091  0.98287809  0.51090062  1.0
  P  P6864  1  0.43646202  0.10787809  0.51090062  1.0
  P  P6865  1  0.43646202  0.23287809  0.51090062  1.0
  P  P6866  1  0.43646202  0.35787809  0.51090062  1.0
  P  P6867  1  0.43646202  0.48287809  0.51090062  1.0
  P  P6868  1  0.43646202  0.60787809  0.51090062  1.0
  P  P6869  1  0.43646202  0.73287809  0.51090062  1.0
  P  P6870  1  0.43646202  0.85787809  0.51090062  1.0
  P  P6871  1  0.43646202  0.98287809  0.51090062  1.0
  P  P6872  1  0.54757313  0.10787809  0.51090062  1.0
  P  P6873  1  0.54757313  0.23287809  0.51090062  1.0
  P  P6874  1  0.54757313  0.35787809  0.51090062  1.0
  P  P6875  1  0.54757313  0.48287809  0.51090062  1.0
  P  P6876  1  0.54757313  0.60787809  0.51090062  1.0
  P  P6877  1  0.54757313  0.73287809  0.51090062  1.0
  P  P6878  1  0.54757313  0.85787809  0.51090062  1.0
  P  P6879  1  0.54757313  0.98287809  0.51090062  1.0
  P  P6880  1  0.65868424  0.10787809  0.51090062  1.0
  P  P6881  1  0.65868424  0.23287809  0.51090062  1.0
  P  P6882  1  0.65868424  0.35787809  0.51090062  1.0
  P  P6883  1  0.65868424  0.48287809  0.51090062  1.0
  P  P6884  1  0.65868424  0.60787809  0.51090062  1.0
  P  P6885  1  0.65868424  0.73287809  0.51090062  1.0
  P  P6886  1  0.65868424  0.85787809  0.51090062  1.0
  P  P6887  1  0.65868424  0.98287809  0.51090062  1.0
  P  P6888  1  0.76979535  0.10787809  0.51090062  1.0
  P  P6889  1  0.76979535  0.23287809  0.51090062  1.0
  P  P6890  1  0.76979535  0.35787809  0.51090062  1.0
  P  P6891  1  0.76979535  0.48287809  0.51090062  1.0
  P  P6892  1  0.76979535  0.60787809  0.51090062  1.0
  P  P6893  1  0.76979535  0.73287809  0.51090062  1.0
  P  P6894  1  0.76979535  0.85787809  0.51090062  1.0
  P  P6895  1  0.76979535  0.98287809  0.51090062  1.0
  P  P6896  1  0.88090646  0.10787809  0.51090062  1.0
  P  P6897  1  0.88090646  0.23287809  0.51090062  1.0
  P  P6898  1  0.88090646  0.35787809  0.51090062  1.0
  P  P6899  1  0.88090646  0.48287809  0.51090062  1.0
  P  P6900  1  0.88090646  0.60787809  0.51090062  1.0
  P  P6901  1  0.88090646  0.73287809  0.51090062  1.0
  P  P6902  1  0.88090646  0.85787809  0.51090062  1.0
  P  P6903  1  0.88090646  0.98287809  0.51090062  1.0
  P  P6904  1  0.99201757  0.10787809  0.51090062  1.0
  P  P6905  1  0.99201757  0.23287809  0.51090062  1.0
  P  P6906  1  0.99201757  0.35787809  0.51090062  1.0
  P  P6907  1  0.99201757  0.48287809  0.51090062  1.0
  P  P6908  1  0.99201757  0.60787809  0.51090062  1.0
  P  P6909  1  0.99201757  0.73287809  0.51090062  1.0
  P  P6910  1  0.99201757  0.85787809  0.51090062  1.0
  P  P6911  1  0.99201757  0.98287809  0.51090062  1.0
  P  P6912  1  0.04492763  0.10787809  0.60613872  1.0
  P  P6913  1  0.04492763  0.23287809  0.60613872  1.0
  P  P6914  1  0.04492763  0.35787809  0.60613872  1.0
  P  P6915  1  0.04492763  0.48287809  0.60613872  1.0
  P  P6916  1  0.04492763  0.60787809  0.60613872  1.0
  P  P6917  1  0.04492763  0.73287809  0.60613872  1.0
  P  P6918  1  0.04492763  0.85787809  0.60613872  1.0
  P  P6919  1  0.04492763  0.98287809  0.60613872  1.0
  P  P6920  1  0.15603874  0.10787809  0.60613872  1.0
  P  P6921  1  0.15603874  0.23287809  0.60613872  1.0
  P  P6922  1  0.15603874  0.35787809  0.60613872  1.0
  P  P6923  1  0.15603874  0.48287809  0.60613872  1.0
  P  P6924  1  0.15603874  0.60787809  0.60613872  1.0
  P  P6925  1  0.15603874  0.73287809  0.60613872  1.0
  P  P6926  1  0.15603874  0.85787809  0.60613872  1.0
  P  P6927  1  0.15603874  0.98287809  0.60613872  1.0
  P  P6928  1  0.26714985  0.10787809  0.60613872  1.0
  P  P6929  1  0.26714985  0.23287809  0.60613872  1.0
  P  P6930  1  0.26714985  0.35787809  0.60613872  1.0
  P  P6931  1  0.26714985  0.48287809  0.60613872  1.0
  P  P6932  1  0.26714985  0.60787809  0.60613872  1.0
  P  P6933  1  0.26714985  0.73287809  0.60613872  1.0
  P  P6934  1  0.26714985  0.85787809  0.60613872  1.0
  P  P6935  1  0.26714985  0.98287809  0.60613872  1.0
  P  P6936  1  0.37826096  0.10787809  0.60613872  1.0
  P  P6937  1  0.37826096  0.23287809  0.60613872  1.0
  P  P6938  1  0.37826096  0.35787809  0.60613872  1.0
  P  P6939  1  0.37826096  0.48287809  0.60613872  1.0
  P  P6940  1  0.37826096  0.60787809  0.60613872  1.0
  P  P6941  1  0.37826096  0.73287809  0.60613872  1.0
  P  P6942  1  0.37826096  0.85787809  0.60613872  1.0
  P  P6943  1  0.37826096  0.98287809  0.60613872  1.0
  P  P6944  1  0.48937207  0.10787809  0.60613872  1.0
  P  P6945  1  0.48937207  0.23287809  0.60613872  1.0
  P  P6946  1  0.48937207  0.35787809  0.60613872  1.0
  P  P6947  1  0.48937207  0.48287809  0.60613872  1.0
  P  P6948  1  0.48937207  0.60787809  0.60613872  1.0
  P  P6949  1  0.48937207  0.73287809  0.60613872  1.0
  P  P6950  1  0.48937207  0.85787809  0.60613872  1.0
  P  P6951  1  0.48937207  0.98287809  0.60613872  1.0
  P  P6952  1  0.60048318  0.10787809  0.60613872  1.0
  P  P6953  1  0.60048318  0.23287809  0.60613872  1.0
  P  P6954  1  0.60048318  0.35787809  0.60613872  1.0
  P  P6955  1  0.60048318  0.48287809  0.60613872  1.0
  P  P6956  1  0.60048318  0.60787809  0.60613872  1.0
  P  P6957  1  0.60048318  0.73287809  0.60613872  1.0
  P  P6958  1  0.60048318  0.85787809  0.60613872  1.0
  P  P6959  1  0.60048318  0.98287809  0.60613872  1.0
  P  P6960  1  0.71159429  0.10787809  0.60613872  1.0
  P  P6961  1  0.71159429  0.23287809  0.60613872  1.0
  P  P6962  1  0.71159429  0.35787809  0.60613872  1.0
  P  P6963  1  0.71159429  0.48287809  0.60613872  1.0
  P  P6964  1  0.71159429  0.60787809  0.60613872  1.0
  P  P6965  1  0.71159429  0.73287809  0.60613872  1.0
  P  P6966  1  0.71159429  0.85787809  0.60613872  1.0
  P  P6967  1  0.71159429  0.98287809  0.60613872  1.0
  P  P6968  1  0.82270540  0.10787809  0.60613872  1.0
  P  P6969  1  0.82270540  0.23287809  0.60613872  1.0
  P  P6970  1  0.82270540  0.35787809  0.60613872  1.0
  P  P6971  1  0.82270540  0.48287809  0.60613872  1.0
  P  P6972  1  0.82270540  0.60787809  0.60613872  1.0
  P  P6973  1  0.82270540  0.73287809  0.60613872  1.0
  P  P6974  1  0.82270540  0.85787809  0.60613872  1.0
  P  P6975  1  0.82270540  0.98287809  0.60613872  1.0
  P  P6976  1  0.93381651  0.10787809  0.60613872  1.0
  P  P6977  1  0.93381651  0.23287809  0.60613872  1.0
  P  P6978  1  0.93381651  0.35787809  0.60613872  1.0
  P  P6979  1  0.93381651  0.48287809  0.60613872  1.0
  P  P6980  1  0.93381651  0.60787809  0.60613872  1.0
  P  P6981  1  0.93381651  0.73287809  0.60613872  1.0
  P  P6982  1  0.93381651  0.85787809  0.60613872  1.0
  P  P6983  1  0.93381651  0.98287809  0.60613872  1.0
  P  P6984  1  0.02012516  0.01712191  0.52634010  1.0
  P  P6985  1  0.02012516  0.14212191  0.52634010  1.0
  P  P6986  1  0.02012516  0.26712191  0.52634010  1.0
  P  P6987  1  0.02012516  0.39212191  0.52634010  1.0
  P  P6988  1  0.02012516  0.51712191  0.52634010  1.0
  P  P6989  1  0.02012516  0.64212191  0.52634010  1.0
  P  P6990  1  0.02012516  0.76712191  0.52634010  1.0
  P  P6991  1  0.02012516  0.89212191  0.52634010  1.0
  P  P6992  1  0.13123627  0.01712191  0.52634010  1.0
  P  P6993  1  0.13123627  0.14212191  0.52634010  1.0
  P  P6994  1  0.13123627  0.26712191  0.52634010  1.0
  P  P6995  1  0.13123627  0.39212191  0.52634010  1.0
  P  P6996  1  0.13123627  0.51712191  0.52634010  1.0
  P  P6997  1  0.13123627  0.64212191  0.52634010  1.0
  P  P6998  1  0.13123627  0.76712191  0.52634010  1.0
  P  P6999  1  0.13123627  0.89212191  0.52634010  1.0
  P  P7000  1  0.24234738  0.01712191  0.52634010  1.0
  P  P7001  1  0.24234738  0.14212191  0.52634010  1.0
  P  P7002  1  0.24234738  0.26712191  0.52634010  1.0
  P  P7003  1  0.24234738  0.39212191  0.52634010  1.0
  P  P7004  1  0.24234738  0.51712191  0.52634010  1.0
  P  P7005  1  0.24234738  0.64212191  0.52634010  1.0
  P  P7006  1  0.24234738  0.76712191  0.52634010  1.0
  P  P7007  1  0.24234738  0.89212191  0.52634010  1.0
  P  P7008  1  0.35345849  0.01712191  0.52634010  1.0
  P  P7009  1  0.35345849  0.14212191  0.52634010  1.0
  P  P7010  1  0.35345849  0.26712191  0.52634010  1.0
  P  P7011  1  0.35345849  0.39212191  0.52634010  1.0
  P  P7012  1  0.35345849  0.51712191  0.52634010  1.0
  P  P7013  1  0.35345849  0.64212191  0.52634010  1.0
  P  P7014  1  0.35345849  0.76712191  0.52634010  1.0
  P  P7015  1  0.35345849  0.89212191  0.52634010  1.0
  P  P7016  1  0.46456961  0.01712191  0.52634010  1.0
  P  P7017  1  0.46456961  0.14212191  0.52634010  1.0
  P  P7018  1  0.46456961  0.26712191  0.52634010  1.0
  P  P7019  1  0.46456961  0.39212191  0.52634010  1.0
  P  P7020  1  0.46456961  0.51712191  0.52634010  1.0
  P  P7021  1  0.46456961  0.64212191  0.52634010  1.0
  P  P7022  1  0.46456961  0.76712191  0.52634010  1.0
  P  P7023  1  0.46456961  0.89212191  0.52634010  1.0
  P  P7024  1  0.57568072  0.01712191  0.52634010  1.0
  P  P7025  1  0.57568072  0.14212191  0.52634010  1.0
  P  P7026  1  0.57568072  0.26712191  0.52634010  1.0
  P  P7027  1  0.57568072  0.39212191  0.52634010  1.0
  P  P7028  1  0.57568072  0.51712191  0.52634010  1.0
  P  P7029  1  0.57568072  0.64212191  0.52634010  1.0
  P  P7030  1  0.57568072  0.76712191  0.52634010  1.0
  P  P7031  1  0.57568072  0.89212191  0.52634010  1.0
  P  P7032  1  0.68679183  0.01712191  0.52634010  1.0
  P  P7033  1  0.68679183  0.14212191  0.52634010  1.0
  P  P7034  1  0.68679183  0.26712191  0.52634010  1.0
  P  P7035  1  0.68679183  0.39212191  0.52634010  1.0
  P  P7036  1  0.68679183  0.51712191  0.52634010  1.0
  P  P7037  1  0.68679183  0.64212191  0.52634010  1.0
  P  P7038  1  0.68679183  0.76712191  0.52634010  1.0
  P  P7039  1  0.68679183  0.89212191  0.52634010  1.0
  P  P7040  1  0.79790294  0.01712191  0.52634010  1.0
  P  P7041  1  0.79790294  0.14212191  0.52634010  1.0
  P  P7042  1  0.79790294  0.26712191  0.52634010  1.0
  P  P7043  1  0.79790294  0.39212191  0.52634010  1.0
  P  P7044  1  0.79790294  0.51712191  0.52634010  1.0
  P  P7045  1  0.79790294  0.64212191  0.52634010  1.0
  P  P7046  1  0.79790294  0.76712191  0.52634010  1.0
  P  P7047  1  0.79790294  0.89212191  0.52634010  1.0
  P  P7048  1  0.90901405  0.01712191  0.52634010  1.0
  P  P7049  1  0.90901405  0.14212191  0.52634010  1.0
  P  P7050  1  0.90901405  0.26712191  0.52634010  1.0
  P  P7051  1  0.90901405  0.39212191  0.52634010  1.0
  P  P7052  1  0.90901405  0.51712191  0.52634010  1.0
  P  P7053  1  0.90901405  0.64212191  0.52634010  1.0
  P  P7054  1  0.90901405  0.76712191  0.52634010  1.0
  P  P7055  1  0.90901405  0.89212191  0.52634010  1.0
  P  P7056  1  0.07303521  0.01712191  0.62157820  1.0
  P  P7057  1  0.07303521  0.14212191  0.62157820  1.0
  P  P7058  1  0.07303521  0.26712191  0.62157820  1.0
  P  P7059  1  0.07303521  0.39212191  0.62157820  1.0
  P  P7060  1  0.07303521  0.51712191  0.62157820  1.0
  P  P7061  1  0.07303521  0.64212191  0.62157820  1.0
  P  P7062  1  0.07303521  0.76712191  0.62157820  1.0
  P  P7063  1  0.07303521  0.89212191  0.62157820  1.0
  P  P7064  1  0.18414632  0.01712191  0.62157820  1.0
  P  P7065  1  0.18414632  0.14212191  0.62157820  1.0
  P  P7066  1  0.18414632  0.26712191  0.62157820  1.0
  P  P7067  1  0.18414632  0.39212191  0.62157820  1.0
  P  P7068  1  0.18414632  0.51712191  0.62157820  1.0
  P  P7069  1  0.18414632  0.64212191  0.62157820  1.0
  P  P7070  1  0.18414632  0.76712191  0.62157820  1.0
  P  P7071  1  0.18414632  0.89212191  0.62157820  1.0
  P  P7072  1  0.29525744  0.01712191  0.62157820  1.0
  P  P7073  1  0.29525744  0.14212191  0.62157820  1.0
  P  P7074  1  0.29525744  0.26712191  0.62157820  1.0
  P  P7075  1  0.29525744  0.39212191  0.62157820  1.0
  P  P7076  1  0.29525744  0.51712191  0.62157820  1.0
  P  P7077  1  0.29525744  0.64212191  0.62157820  1.0
  P  P7078  1  0.29525744  0.76712191  0.62157820  1.0
  P  P7079  1  0.29525744  0.89212191  0.62157820  1.0
  P  P7080  1  0.40636855  0.01712191  0.62157820  1.0
  P  P7081  1  0.40636855  0.14212191  0.62157820  1.0
  P  P7082  1  0.40636855  0.26712191  0.62157820  1.0
  P  P7083  1  0.40636855  0.39212191  0.62157820  1.0
  P  P7084  1  0.40636855  0.51712191  0.62157820  1.0
  P  P7085  1  0.40636855  0.64212191  0.62157820  1.0
  P  P7086  1  0.40636855  0.76712191  0.62157820  1.0
  P  P7087  1  0.40636855  0.89212191  0.62157820  1.0
  P  P7088  1  0.51747966  0.01712191  0.62157820  1.0
  P  P7089  1  0.51747966  0.14212191  0.62157820  1.0
  P  P7090  1  0.51747966  0.26712191  0.62157820  1.0
  P  P7091  1  0.51747966  0.39212191  0.62157820  1.0
  P  P7092  1  0.51747966  0.51712191  0.62157820  1.0
  P  P7093  1  0.51747966  0.64212191  0.62157820  1.0
  P  P7094  1  0.51747966  0.76712191  0.62157820  1.0
  P  P7095  1  0.51747966  0.89212191  0.62157820  1.0
  P  P7096  1  0.62859077  0.01712191  0.62157820  1.0
  P  P7097  1  0.62859077  0.14212191  0.62157820  1.0
  P  P7098  1  0.62859077  0.26712191  0.62157820  1.0
  P  P7099  1  0.62859077  0.39212191  0.62157820  1.0
  P  P7100  1  0.62859077  0.51712191  0.62157820  1.0
  P  P7101  1  0.62859077  0.64212191  0.62157820  1.0
  P  P7102  1  0.62859077  0.76712191  0.62157820  1.0
  P  P7103  1  0.62859077  0.89212191  0.62157820  1.0
  P  P7104  1  0.73970188  0.01712191  0.62157820  1.0
  P  P7105  1  0.73970188  0.14212191  0.62157820  1.0
  P  P7106  1  0.73970188  0.26712191  0.62157820  1.0
  P  P7107  1  0.73970188  0.39212191  0.62157820  1.0
  P  P7108  1  0.73970188  0.51712191  0.62157820  1.0
  P  P7109  1  0.73970188  0.64212191  0.62157820  1.0
  P  P7110  1  0.73970188  0.76712191  0.62157820  1.0
  P  P7111  1  0.73970188  0.89212191  0.62157820  1.0
  P  P7112  1  0.85081299  0.01712191  0.62157820  1.0
  P  P7113  1  0.85081299  0.14212191  0.62157820  1.0
  P  P7114  1  0.85081299  0.26712191  0.62157820  1.0
  P  P7115  1  0.85081299  0.39212191  0.62157820  1.0
  P  P7116  1  0.85081299  0.51712191  0.62157820  1.0
  P  P7117  1  0.85081299  0.64212191  0.62157820  1.0
  P  P7118  1  0.85081299  0.76712191  0.62157820  1.0
  P  P7119  1  0.85081299  0.89212191  0.62157820  1.0
  P  P7120  1  0.96192410  0.01712191  0.62157820  1.0
  P  P7121  1  0.96192410  0.14212191  0.62157820  1.0
  P  P7122  1  0.96192410  0.26712191  0.62157820  1.0
  P  P7123  1  0.96192410  0.39212191  0.62157820  1.0
  P  P7124  1  0.96192410  0.51712191  0.62157820  1.0
  P  P7125  1  0.96192410  0.64212191  0.62157820  1.0
  P  P7126  1  0.96192410  0.76712191  0.62157820  1.0
  P  P7127  1  0.96192410  0.89212191  0.62157820  1.0
  P  P7128  1  0.04658019  0.01712191  0.57395915  1.0
  P  P7129  1  0.04658019  0.14212191  0.57395915  1.0
  P  P7130  1  0.04658019  0.26712191  0.57395915  1.0
  P  P7131  1  0.04658019  0.39212191  0.57395915  1.0
  P  P7132  1  0.04658019  0.51712191  0.57395915  1.0
  P  P7133  1  0.04658019  0.64212191  0.57395915  1.0
  P  P7134  1  0.04658019  0.76712191  0.57395915  1.0
  P  P7135  1  0.04658019  0.89212191  0.57395915  1.0
  P  P7136  1  0.15769130  0.01712191  0.57395915  1.0
  P  P7137  1  0.15769130  0.14212191  0.57395915  1.0
  P  P7138  1  0.15769130  0.26712191  0.57395915  1.0
  P  P7139  1  0.15769130  0.39212191  0.57395915  1.0
  P  P7140  1  0.15769130  0.51712191  0.57395915  1.0
  P  P7141  1  0.15769130  0.64212191  0.57395915  1.0
  P  P7142  1  0.15769130  0.76712191  0.57395915  1.0
  P  P7143  1  0.15769130  0.89212191  0.57395915  1.0
  P  P7144  1  0.26880241  0.01712191  0.57395915  1.0
  P  P7145  1  0.26880241  0.14212191  0.57395915  1.0
  P  P7146  1  0.26880241  0.26712191  0.57395915  1.0
  P  P7147  1  0.26880241  0.39212191  0.57395915  1.0
  P  P7148  1  0.26880241  0.51712191  0.57395915  1.0
  P  P7149  1  0.26880241  0.64212191  0.57395915  1.0
  P  P7150  1  0.26880241  0.76712191  0.57395915  1.0
  P  P7151  1  0.26880241  0.89212191  0.57395915  1.0
  P  P7152  1  0.37991352  0.01712191  0.57395915  1.0
  P  P7153  1  0.37991352  0.14212191  0.57395915  1.0
  P  P7154  1  0.37991352  0.26712191  0.57395915  1.0
  P  P7155  1  0.37991352  0.39212191  0.57395915  1.0
  P  P7156  1  0.37991352  0.51712191  0.57395915  1.0
  P  P7157  1  0.37991352  0.64212191  0.57395915  1.0
  P  P7158  1  0.37991352  0.76712191  0.57395915  1.0
  P  P7159  1  0.37991352  0.89212191  0.57395915  1.0
  P  P7160  1  0.49102463  0.01712191  0.57395915  1.0
  P  P7161  1  0.49102463  0.14212191  0.57395915  1.0
  P  P7162  1  0.49102463  0.26712191  0.57395915  1.0
  P  P7163  1  0.49102463  0.39212191  0.57395915  1.0
  P  P7164  1  0.49102463  0.51712191  0.57395915  1.0
  P  P7165  1  0.49102463  0.64212191  0.57395915  1.0
  P  P7166  1  0.49102463  0.76712191  0.57395915  1.0
  P  P7167  1  0.49102463  0.89212191  0.57395915  1.0
  P  P7168  1  0.60213574  0.01712191  0.57395915  1.0
  P  P7169  1  0.60213574  0.14212191  0.57395915  1.0
  P  P7170  1  0.60213574  0.26712191  0.57395915  1.0
  P  P7171  1  0.60213574  0.39212191  0.57395915  1.0
  P  P7172  1  0.60213574  0.51712191  0.57395915  1.0
  P  P7173  1  0.60213574  0.64212191  0.57395915  1.0
  P  P7174  1  0.60213574  0.76712191  0.57395915  1.0
  P  P7175  1  0.60213574  0.89212191  0.57395915  1.0
  P  P7176  1  0.71324685  0.01712191  0.57395915  1.0
  P  P7177  1  0.71324685  0.14212191  0.57395915  1.0
  P  P7178  1  0.71324685  0.26712191  0.57395915  1.0
  P  P7179  1  0.71324685  0.39212191  0.57395915  1.0
  P  P7180  1  0.71324685  0.51712191  0.57395915  1.0
  P  P7181  1  0.71324685  0.64212191  0.57395915  1.0
  P  P7182  1  0.71324685  0.76712191  0.57395915  1.0
  P  P7183  1  0.71324685  0.89212191  0.57395915  1.0
  P  P7184  1  0.82435796  0.01712191  0.57395915  1.0
  P  P7185  1  0.82435796  0.14212191  0.57395915  1.0
  P  P7186  1  0.82435796  0.26712191  0.57395915  1.0
  P  P7187  1  0.82435796  0.39212191  0.57395915  1.0
  P  P7188  1  0.82435796  0.51712191  0.57395915  1.0
  P  P7189  1  0.82435796  0.64212191  0.57395915  1.0
  P  P7190  1  0.82435796  0.76712191  0.57395915  1.0
  P  P7191  1  0.82435796  0.89212191  0.57395915  1.0
  P  P7192  1  0.93546908  0.01712191  0.57395915  1.0
  P  P7193  1  0.93546908  0.14212191  0.57395915  1.0
  P  P7194  1  0.93546908  0.26712191  0.57395915  1.0
  P  P7195  1  0.93546908  0.39212191  0.57395915  1.0
  P  P7196  1  0.93546908  0.51712191  0.57395915  1.0
  P  P7197  1  0.93546908  0.64212191  0.57395915  1.0
  P  P7198  1  0.93546908  0.76712191  0.57395915  1.0
  P  P7199  1  0.93546908  0.89212191  0.57395915  1.0
  P  P7200  1  0.06080064  0.07962191  0.53471015  1.0
  P  P7201  1  0.06080064  0.20462191  0.53471015  1.0
  P  P7202  1  0.06080064  0.32962191  0.53471015  1.0
  P  P7203  1  0.06080064  0.45462191  0.53471015  1.0
  P  P7204  1  0.06080064  0.57962191  0.53471015  1.0
  P  P7205  1  0.06080064  0.70462191  0.53471015  1.0
  P  P7206  1  0.06080064  0.82962191  0.53471015  1.0
  P  P7207  1  0.06080064  0.95462191  0.53471015  1.0
  P  P7208  1  0.17191175  0.07962191  0.53471015  1.0
  P  P7209  1  0.17191175  0.20462191  0.53471015  1.0
  P  P7210  1  0.17191175  0.32962191  0.53471015  1.0
  P  P7211  1  0.17191175  0.45462191  0.53471015  1.0
  P  P7212  1  0.17191175  0.57962191  0.53471015  1.0
  P  P7213  1  0.17191175  0.70462191  0.53471015  1.0
  P  P7214  1  0.17191175  0.82962191  0.53471015  1.0
  P  P7215  1  0.17191175  0.95462191  0.53471015  1.0
  P  P7216  1  0.28302286  0.07962191  0.53471015  1.0
  P  P7217  1  0.28302286  0.20462191  0.53471015  1.0
  P  P7218  1  0.28302286  0.32962191  0.53471015  1.0
  P  P7219  1  0.28302286  0.45462191  0.53471015  1.0
  P  P7220  1  0.28302286  0.57962191  0.53471015  1.0
  P  P7221  1  0.28302286  0.70462191  0.53471015  1.0
  P  P7222  1  0.28302286  0.82962191  0.53471015  1.0
  P  P7223  1  0.28302286  0.95462191  0.53471015  1.0
  P  P7224  1  0.39413397  0.07962191  0.53471015  1.0
  P  P7225  1  0.39413397  0.20462191  0.53471015  1.0
  P  P7226  1  0.39413397  0.32962191  0.53471015  1.0
  P  P7227  1  0.39413397  0.45462191  0.53471015  1.0
  P  P7228  1  0.39413397  0.57962191  0.53471015  1.0
  P  P7229  1  0.39413397  0.70462191  0.53471015  1.0
  P  P7230  1  0.39413397  0.82962191  0.53471015  1.0
  P  P7231  1  0.39413397  0.95462191  0.53471015  1.0
  P  P7232  1  0.50524509  0.07962191  0.53471015  1.0
  P  P7233  1  0.50524509  0.20462191  0.53471015  1.0
  P  P7234  1  0.50524509  0.32962191  0.53471015  1.0
  P  P7235  1  0.50524509  0.45462191  0.53471015  1.0
  P  P7236  1  0.50524509  0.57962191  0.53471015  1.0
  P  P7237  1  0.50524509  0.70462191  0.53471015  1.0
  P  P7238  1  0.50524509  0.82962191  0.53471015  1.0
  P  P7239  1  0.50524509  0.95462191  0.53471015  1.0
  P  P7240  1  0.61635620  0.07962191  0.53471015  1.0
  P  P7241  1  0.61635620  0.20462191  0.53471015  1.0
  P  P7242  1  0.61635620  0.32962191  0.53471015  1.0
  P  P7243  1  0.61635620  0.45462191  0.53471015  1.0
  P  P7244  1  0.61635620  0.57962191  0.53471015  1.0
  P  P7245  1  0.61635620  0.70462191  0.53471015  1.0
  P  P7246  1  0.61635620  0.82962191  0.53471015  1.0
  P  P7247  1  0.61635620  0.95462191  0.53471015  1.0
  P  P7248  1  0.72746731  0.07962191  0.53471015  1.0
  P  P7249  1  0.72746731  0.20462191  0.53471015  1.0
  P  P7250  1  0.72746731  0.32962191  0.53471015  1.0
  P  P7251  1  0.72746731  0.45462191  0.53471015  1.0
  P  P7252  1  0.72746731  0.57962191  0.53471015  1.0
  P  P7253  1  0.72746731  0.70462191  0.53471015  1.0
  P  P7254  1  0.72746731  0.82962191  0.53471015  1.0
  P  P7255  1  0.72746731  0.95462191  0.53471015  1.0
  P  P7256  1  0.83857842  0.07962191  0.53471015  1.0
  P  P7257  1  0.83857842  0.20462191  0.53471015  1.0
  P  P7258  1  0.83857842  0.32962191  0.53471015  1.0
  P  P7259  1  0.83857842  0.45462191  0.53471015  1.0
  P  P7260  1  0.83857842  0.57962191  0.53471015  1.0
  P  P7261  1  0.83857842  0.70462191  0.53471015  1.0
  P  P7262  1  0.83857842  0.82962191  0.53471015  1.0
  P  P7263  1  0.83857842  0.95462191  0.53471015  1.0
  P  P7264  1  0.94968953  0.07962191  0.53471015  1.0
  P  P7265  1  0.94968953  0.20462191  0.53471015  1.0
  P  P7266  1  0.94968953  0.32962191  0.53471015  1.0
  P  P7267  1  0.94968953  0.45462191  0.53471015  1.0
  P  P7268  1  0.94968953  0.57962191  0.53471015  1.0
  P  P7269  1  0.94968953  0.70462191  0.53471015  1.0
  P  P7270  1  0.94968953  0.82962191  0.53471015  1.0
  P  P7271  1  0.94968953  0.95462191  0.53471015  1.0
  P  P7272  1  0.00259958  0.07962191  0.62994824  1.0
  P  P7273  1  0.00259958  0.20462191  0.62994824  1.0
  P  P7274  1  0.00259958  0.32962191  0.62994824  1.0
  P  P7275  1  0.00259958  0.45462191  0.62994824  1.0
  P  P7276  1  0.00259958  0.57962191  0.62994824  1.0
  P  P7277  1  0.00259958  0.70462191  0.62994824  1.0
  P  P7278  1  0.00259958  0.82962191  0.62994824  1.0
  P  P7279  1  0.00259958  0.95462191  0.62994824  1.0
  P  P7280  1  0.11371069  0.07962191  0.62994824  1.0
  P  P7281  1  0.11371069  0.20462191  0.62994824  1.0
  P  P7282  1  0.11371069  0.32962191  0.62994824  1.0
  P  P7283  1  0.11371069  0.45462191  0.62994824  1.0
  P  P7284  1  0.11371069  0.57962191  0.62994824  1.0
  P  P7285  1  0.11371069  0.70462191  0.62994824  1.0
  P  P7286  1  0.11371069  0.82962191  0.62994824  1.0
  P  P7287  1  0.11371069  0.95462191  0.62994824  1.0
  P  P7288  1  0.22482181  0.07962191  0.62994824  1.0
  P  P7289  1  0.22482181  0.20462191  0.62994824  1.0
  P  P7290  1  0.22482181  0.32962191  0.62994824  1.0
  P  P7291  1  0.22482181  0.45462191  0.62994824  1.0
  P  P7292  1  0.22482181  0.57962191  0.62994824  1.0
  P  P7293  1  0.22482181  0.70462191  0.62994824  1.0
  P  P7294  1  0.22482181  0.82962191  0.62994824  1.0
  P  P7295  1  0.22482181  0.95462191  0.62994824  1.0
  P  P7296  1  0.33593292  0.07962191  0.62994824  1.0
  P  P7297  1  0.33593292  0.20462191  0.62994824  1.0
  P  P7298  1  0.33593292  0.32962191  0.62994824  1.0
  P  P7299  1  0.33593292  0.45462191  0.62994824  1.0
  P  P7300  1  0.33593292  0.57962191  0.62994824  1.0
  P  P7301  1  0.33593292  0.70462191  0.62994824  1.0
  P  P7302  1  0.33593292  0.82962191  0.62994824  1.0
  P  P7303  1  0.33593292  0.95462191  0.62994824  1.0
  P  P7304  1  0.44704403  0.07962191  0.62994824  1.0
  P  P7305  1  0.44704403  0.20462191  0.62994824  1.0
  P  P7306  1  0.44704403  0.32962191  0.62994824  1.0
  P  P7307  1  0.44704403  0.45462191  0.62994824  1.0
  P  P7308  1  0.44704403  0.57962191  0.62994824  1.0
  P  P7309  1  0.44704403  0.70462191  0.62994824  1.0
  P  P7310  1  0.44704403  0.82962191  0.62994824  1.0
  P  P7311  1  0.44704403  0.95462191  0.62994824  1.0
  P  P7312  1  0.55815514  0.07962191  0.62994824  1.0
  P  P7313  1  0.55815514  0.20462191  0.62994824  1.0
  P  P7314  1  0.55815514  0.32962191  0.62994824  1.0
  P  P7315  1  0.55815514  0.45462191  0.62994824  1.0
  P  P7316  1  0.55815514  0.57962191  0.62994824  1.0
  P  P7317  1  0.55815514  0.70462191  0.62994824  1.0
  P  P7318  1  0.55815514  0.82962191  0.62994824  1.0
  P  P7319  1  0.55815514  0.95462191  0.62994824  1.0
  P  P7320  1  0.66926625  0.07962191  0.62994824  1.0
  P  P7321  1  0.66926625  0.20462191  0.62994824  1.0
  P  P7322  1  0.66926625  0.32962191  0.62994824  1.0
  P  P7323  1  0.66926625  0.45462191  0.62994824  1.0
  P  P7324  1  0.66926625  0.57962191  0.62994824  1.0
  P  P7325  1  0.66926625  0.70462191  0.62994824  1.0
  P  P7326  1  0.66926625  0.82962191  0.62994824  1.0
  P  P7327  1  0.66926625  0.95462191  0.62994824  1.0
  P  P7328  1  0.78037736  0.07962191  0.62994824  1.0
  P  P7329  1  0.78037736  0.20462191  0.62994824  1.0
  P  P7330  1  0.78037736  0.32962191  0.62994824  1.0
  P  P7331  1  0.78037736  0.45462191  0.62994824  1.0
  P  P7332  1  0.78037736  0.57962191  0.62994824  1.0
  P  P7333  1  0.78037736  0.70462191  0.62994824  1.0
  P  P7334  1  0.78037736  0.82962191  0.62994824  1.0
  P  P7335  1  0.78037736  0.95462191  0.62994824  1.0
  P  P7336  1  0.89148847  0.07962191  0.62994824  1.0
  P  P7337  1  0.89148847  0.20462191  0.62994824  1.0
  P  P7338  1  0.89148847  0.32962191  0.62994824  1.0
  P  P7339  1  0.89148847  0.45462191  0.62994824  1.0
  P  P7340  1  0.89148847  0.57962191  0.62994824  1.0
  P  P7341  1  0.89148847  0.70462191  0.62994824  1.0
  P  P7342  1  0.89148847  0.82962191  0.62994824  1.0
  P  P7343  1  0.89148847  0.95462191  0.62994824  1.0
  P  P7344  1  0.08725567  0.07962191  0.58232919  1.0
  P  P7345  1  0.08725567  0.20462191  0.58232919  1.0
  P  P7346  1  0.08725567  0.32962191  0.58232919  1.0
  P  P7347  1  0.08725567  0.45462191  0.58232919  1.0
  P  P7348  1  0.08725567  0.57962191  0.58232919  1.0
  P  P7349  1  0.08725567  0.70462191  0.58232919  1.0
  P  P7350  1  0.08725567  0.82962191  0.58232919  1.0
  P  P7351  1  0.08725567  0.95462191  0.58232919  1.0
  P  P7352  1  0.19836678  0.07962191  0.58232919  1.0
  P  P7353  1  0.19836678  0.20462191  0.58232919  1.0
  P  P7354  1  0.19836678  0.32962191  0.58232919  1.0
  P  P7355  1  0.19836678  0.45462191  0.58232919  1.0
  P  P7356  1  0.19836678  0.57962191  0.58232919  1.0
  P  P7357  1  0.19836678  0.70462191  0.58232919  1.0
  P  P7358  1  0.19836678  0.82962191  0.58232919  1.0
  P  P7359  1  0.19836678  0.95462191  0.58232919  1.0
  P  P7360  1  0.30947789  0.07962191  0.58232919  1.0
  P  P7361  1  0.30947789  0.20462191  0.58232919  1.0
  P  P7362  1  0.30947789  0.32962191  0.58232919  1.0
  P  P7363  1  0.30947789  0.45462191  0.58232919  1.0
  P  P7364  1  0.30947789  0.57962191  0.58232919  1.0
  P  P7365  1  0.30947789  0.70462191  0.58232919  1.0
  P  P7366  1  0.30947789  0.82962191  0.58232919  1.0
  P  P7367  1  0.30947789  0.95462191  0.58232919  1.0
  P  P7368  1  0.42058900  0.07962191  0.58232919  1.0
  P  P7369  1  0.42058900  0.20462191  0.58232919  1.0
  P  P7370  1  0.42058900  0.32962191  0.58232919  1.0
  P  P7371  1  0.42058900  0.45462191  0.58232919  1.0
  P  P7372  1  0.42058900  0.57962191  0.58232919  1.0
  P  P7373  1  0.42058900  0.70462191  0.58232919  1.0
  P  P7374  1  0.42058900  0.82962191  0.58232919  1.0
  P  P7375  1  0.42058900  0.95462191  0.58232919  1.0
  P  P7376  1  0.53170011  0.07962191  0.58232919  1.0
  P  P7377  1  0.53170011  0.20462191  0.58232919  1.0
  P  P7378  1  0.53170011  0.32962191  0.58232919  1.0
  P  P7379  1  0.53170011  0.45462191  0.58232919  1.0
  P  P7380  1  0.53170011  0.57962191  0.58232919  1.0
  P  P7381  1  0.53170011  0.70462191  0.58232919  1.0
  P  P7382  1  0.53170011  0.82962191  0.58232919  1.0
  P  P7383  1  0.53170011  0.95462191  0.58232919  1.0
  P  P7384  1  0.64281122  0.07962191  0.58232919  1.0
  P  P7385  1  0.64281122  0.20462191  0.58232919  1.0
  P  P7386  1  0.64281122  0.32962191  0.58232919  1.0
  P  P7387  1  0.64281122  0.45462191  0.58232919  1.0
  P  P7388  1  0.64281122  0.57962191  0.58232919  1.0
  P  P7389  1  0.64281122  0.70462191  0.58232919  1.0
  P  P7390  1  0.64281122  0.82962191  0.58232919  1.0
  P  P7391  1  0.64281122  0.95462191  0.58232919  1.0
  P  P7392  1  0.75392233  0.07962191  0.58232919  1.0
  P  P7393  1  0.75392233  0.20462191  0.58232919  1.0
  P  P7394  1  0.75392233  0.32962191  0.58232919  1.0
  P  P7395  1  0.75392233  0.45462191  0.58232919  1.0
  P  P7396  1  0.75392233  0.57962191  0.58232919  1.0
  P  P7397  1  0.75392233  0.70462191  0.58232919  1.0
  P  P7398  1  0.75392233  0.82962191  0.58232919  1.0
  P  P7399  1  0.75392233  0.95462191  0.58232919  1.0
  P  P7400  1  0.86503345  0.07962191  0.58232919  1.0
  P  P7401  1  0.86503345  0.20462191  0.58232919  1.0
  P  P7402  1  0.86503345  0.32962191  0.58232919  1.0
  P  P7403  1  0.86503345  0.45462191  0.58232919  1.0
  P  P7404  1  0.86503345  0.57962191  0.58232919  1.0
  P  P7405  1  0.86503345  0.70462191  0.58232919  1.0
  P  P7406  1  0.86503345  0.82962191  0.58232919  1.0
  P  P7407  1  0.86503345  0.95462191  0.58232919  1.0
  P  P7408  1  0.97614456  0.07962191  0.58232919  1.0
  P  P7409  1  0.97614456  0.20462191  0.58232919  1.0
  P  P7410  1  0.97614456  0.32962191  0.58232919  1.0
  P  P7411  1  0.97614456  0.45462191  0.58232919  1.0
  P  P7412  1  0.97614456  0.57962191  0.58232919  1.0
  P  P7413  1  0.97614456  0.70462191  0.58232919  1.0
  P  P7414  1  0.97614456  0.82962191  0.58232919  1.0
  P  P7415  1  0.97614456  0.95462191  0.58232919  1.0
  P  P7416  1  0.08890823  0.04537809  0.55014963  1.0
  P  P7417  1  0.08890823  0.17037809  0.55014963  1.0
  P  P7418  1  0.08890823  0.29537809  0.55014963  1.0
  P  P7419  1  0.08890823  0.42037809  0.55014963  1.0
  P  P7420  1  0.08890823  0.54537809  0.55014963  1.0
  P  P7421  1  0.08890823  0.67037809  0.55014963  1.0
  P  P7422  1  0.08890823  0.79537809  0.55014963  1.0
  P  P7423  1  0.08890823  0.92037809  0.55014963  1.0
  P  P7424  1  0.20001934  0.04537809  0.55014963  1.0
  P  P7425  1  0.20001934  0.17037809  0.55014963  1.0
  P  P7426  1  0.20001934  0.29537809  0.55014963  1.0
  P  P7427  1  0.20001934  0.42037809  0.55014963  1.0
  P  P7428  1  0.20001934  0.54537809  0.55014963  1.0
  P  P7429  1  0.20001934  0.67037809  0.55014963  1.0
  P  P7430  1  0.20001934  0.79537809  0.55014963  1.0
  P  P7431  1  0.20001934  0.92037809  0.55014963  1.0
  P  P7432  1  0.31113045  0.04537809  0.55014963  1.0
  P  P7433  1  0.31113045  0.17037809  0.55014963  1.0
  P  P7434  1  0.31113045  0.29537809  0.55014963  1.0
  P  P7435  1  0.31113045  0.42037809  0.55014963  1.0
  P  P7436  1  0.31113045  0.54537809  0.55014963  1.0
  P  P7437  1  0.31113045  0.67037809  0.55014963  1.0
  P  P7438  1  0.31113045  0.79537809  0.55014963  1.0
  P  P7439  1  0.31113045  0.92037809  0.55014963  1.0
  P  P7440  1  0.42224156  0.04537809  0.55014963  1.0
  P  P7441  1  0.42224156  0.17037809  0.55014963  1.0
  P  P7442  1  0.42224156  0.29537809  0.55014963  1.0
  P  P7443  1  0.42224156  0.42037809  0.55014963  1.0
  P  P7444  1  0.42224156  0.54537809  0.55014963  1.0
  P  P7445  1  0.42224156  0.67037809  0.55014963  1.0
  P  P7446  1  0.42224156  0.79537809  0.55014963  1.0
  P  P7447  1  0.42224156  0.92037809  0.55014963  1.0
  P  P7448  1  0.53335267  0.04537809  0.55014963  1.0
  P  P7449  1  0.53335267  0.17037809  0.55014963  1.0
  P  P7450  1  0.53335267  0.29537809  0.55014963  1.0
  P  P7451  1  0.53335267  0.42037809  0.55014963  1.0
  P  P7452  1  0.53335267  0.54537809  0.55014963  1.0
  P  P7453  1  0.53335267  0.67037809  0.55014963  1.0
  P  P7454  1  0.53335267  0.79537809  0.55014963  1.0
  P  P7455  1  0.53335267  0.92037809  0.55014963  1.0
  P  P7456  1  0.64446378  0.04537809  0.55014963  1.0
  P  P7457  1  0.64446378  0.17037809  0.55014963  1.0
  P  P7458  1  0.64446378  0.29537809  0.55014963  1.0
  P  P7459  1  0.64446378  0.42037809  0.55014963  1.0
  P  P7460  1  0.64446378  0.54537809  0.55014963  1.0
  P  P7461  1  0.64446378  0.67037809  0.55014963  1.0
  P  P7462  1  0.64446378  0.79537809  0.55014963  1.0
  P  P7463  1  0.64446378  0.92037809  0.55014963  1.0
  P  P7464  1  0.75557490  0.04537809  0.55014963  1.0
  P  P7465  1  0.75557490  0.17037809  0.55014963  1.0
  P  P7466  1  0.75557490  0.29537809  0.55014963  1.0
  P  P7467  1  0.75557490  0.42037809  0.55014963  1.0
  P  P7468  1  0.75557490  0.54537809  0.55014963  1.0
  P  P7469  1  0.75557490  0.67037809  0.55014963  1.0
  P  P7470  1  0.75557490  0.79537809  0.55014963  1.0
  P  P7471  1  0.75557490  0.92037809  0.55014963  1.0
  P  P7472  1  0.86668601  0.04537809  0.55014963  1.0
  P  P7473  1  0.86668601  0.17037809  0.55014963  1.0
  P  P7474  1  0.86668601  0.29537809  0.55014963  1.0
  P  P7475  1  0.86668601  0.42037809  0.55014963  1.0
  P  P7476  1  0.86668601  0.54537809  0.55014963  1.0
  P  P7477  1  0.86668601  0.67037809  0.55014963  1.0
  P  P7478  1  0.86668601  0.79537809  0.55014963  1.0
  P  P7479  1  0.86668601  0.92037809  0.55014963  1.0
  P  P7480  1  0.97779712  0.04537809  0.55014963  1.0
  P  P7481  1  0.97779712  0.17037809  0.55014963  1.0
  P  P7482  1  0.97779712  0.29537809  0.55014963  1.0
  P  P7483  1  0.97779712  0.42037809  0.55014963  1.0
  P  P7484  1  0.97779712  0.54537809  0.55014963  1.0
  P  P7485  1  0.97779712  0.67037809  0.55014963  1.0
  P  P7486  1  0.97779712  0.79537809  0.55014963  1.0
  P  P7487  1  0.97779712  0.92037809  0.55014963  1.0
  P  P7488  1  0.06245320  0.04537809  0.50253058  1.0
  P  P7489  1  0.06245320  0.17037809  0.50253058  1.0
  P  P7490  1  0.06245320  0.29537809  0.50253058  1.0
  P  P7491  1  0.06245320  0.42037809  0.50253058  1.0
  P  P7492  1  0.06245320  0.54537809  0.50253058  1.0
  P  P7493  1  0.06245320  0.67037809  0.50253058  1.0
  P  P7494  1  0.06245320  0.79537809  0.50253058  1.0
  P  P7495  1  0.06245320  0.92037809  0.50253058  1.0
  P  P7496  1  0.17356431  0.04537809  0.50253058  1.0
  P  P7497  1  0.17356431  0.17037809  0.50253058  1.0
  P  P7498  1  0.17356431  0.29537809  0.50253058  1.0
  P  P7499  1  0.17356431  0.42037809  0.50253058  1.0
  P  P7500  1  0.17356431  0.54537809  0.50253058  1.0
  P  P7501  1  0.17356431  0.67037809  0.50253058  1.0
  P  P7502  1  0.17356431  0.79537809  0.50253058  1.0
  P  P7503  1  0.17356431  0.92037809  0.50253058  1.0
  P  P7504  1  0.28467543  0.04537809  0.50253058  1.0
  P  P7505  1  0.28467543  0.17037809  0.50253058  1.0
  P  P7506  1  0.28467543  0.29537809  0.50253058  1.0
  P  P7507  1  0.28467543  0.42037809  0.50253058  1.0
  P  P7508  1  0.28467543  0.54537809  0.50253058  1.0
  P  P7509  1  0.28467543  0.67037809  0.50253058  1.0
  P  P7510  1  0.28467543  0.79537809  0.50253058  1.0
  P  P7511  1  0.28467543  0.92037809  0.50253058  1.0
  P  P7512  1  0.39578654  0.04537809  0.50253058  1.0
  P  P7513  1  0.39578654  0.17037809  0.50253058  1.0
  P  P7514  1  0.39578654  0.29537809  0.50253058  1.0
  P  P7515  1  0.39578654  0.42037809  0.50253058  1.0
  P  P7516  1  0.39578654  0.54537809  0.50253058  1.0
  P  P7517  1  0.39578654  0.67037809  0.50253058  1.0
  P  P7518  1  0.39578654  0.79537809  0.50253058  1.0
  P  P7519  1  0.39578654  0.92037809  0.50253058  1.0
  P  P7520  1  0.50689765  0.04537809  0.50253058  1.0
  P  P7521  1  0.50689765  0.17037809  0.50253058  1.0
  P  P7522  1  0.50689765  0.29537809  0.50253058  1.0
  P  P7523  1  0.50689765  0.42037809  0.50253058  1.0
  P  P7524  1  0.50689765  0.54537809  0.50253058  1.0
  P  P7525  1  0.50689765  0.67037809  0.50253058  1.0
  P  P7526  1  0.50689765  0.79537809  0.50253058  1.0
  P  P7527  1  0.50689765  0.92037809  0.50253058  1.0
  P  P7528  1  0.61800876  0.04537809  0.50253058  1.0
  P  P7529  1  0.61800876  0.17037809  0.50253058  1.0
  P  P7530  1  0.61800876  0.29537809  0.50253058  1.0
  P  P7531  1  0.61800876  0.42037809  0.50253058  1.0
  P  P7532  1  0.61800876  0.54537809  0.50253058  1.0
  P  P7533  1  0.61800876  0.67037809  0.50253058  1.0
  P  P7534  1  0.61800876  0.79537809  0.50253058  1.0
  P  P7535  1  0.61800876  0.92037809  0.50253058  1.0
  P  P7536  1  0.72911987  0.04537809  0.50253058  1.0
  P  P7537  1  0.72911987  0.17037809  0.50253058  1.0
  P  P7538  1  0.72911987  0.29537809  0.50253058  1.0
  P  P7539  1  0.72911987  0.42037809  0.50253058  1.0
  P  P7540  1  0.72911987  0.54537809  0.50253058  1.0
  P  P7541  1  0.72911987  0.67037809  0.50253058  1.0
  P  P7542  1  0.72911987  0.79537809  0.50253058  1.0
  P  P7543  1  0.72911987  0.92037809  0.50253058  1.0
  P  P7544  1  0.84023098  0.04537809  0.50253058  1.0
  P  P7545  1  0.84023098  0.17037809  0.50253058  1.0
  P  P7546  1  0.84023098  0.29537809  0.50253058  1.0
  P  P7547  1  0.84023098  0.42037809  0.50253058  1.0
  P  P7548  1  0.84023098  0.54537809  0.50253058  1.0
  P  P7549  1  0.84023098  0.67037809  0.50253058  1.0
  P  P7550  1  0.84023098  0.79537809  0.50253058  1.0
  P  P7551  1  0.84023098  0.92037809  0.50253058  1.0
  P  P7552  1  0.95134209  0.04537809  0.50253058  1.0
  P  P7553  1  0.95134209  0.17037809  0.50253058  1.0
  P  P7554  1  0.95134209  0.29537809  0.50253058  1.0
  P  P7555  1  0.95134209  0.42037809  0.50253058  1.0
  P  P7556  1  0.95134209  0.54537809  0.50253058  1.0
  P  P7557  1  0.95134209  0.67037809  0.50253058  1.0
  P  P7558  1  0.95134209  0.79537809  0.50253058  1.0
  P  P7559  1  0.95134209  0.92037809  0.50253058  1.0
  P  P7560  1  0.00425214  0.04537809  0.59776868  1.0
  P  P7561  1  0.00425214  0.17037809  0.59776868  1.0
  P  P7562  1  0.00425214  0.29537809  0.59776868  1.0
  P  P7563  1  0.00425214  0.42037809  0.59776868  1.0
  P  P7564  1  0.00425214  0.54537809  0.59776868  1.0
  P  P7565  1  0.00425214  0.67037809  0.59776868  1.0
  P  P7566  1  0.00425214  0.79537809  0.59776868  1.0
  P  P7567  1  0.00425214  0.92037809  0.59776868  1.0
  P  P7568  1  0.11536326  0.04537809  0.59776868  1.0
  P  P7569  1  0.11536326  0.17037809  0.59776868  1.0
  P  P7570  1  0.11536326  0.29537809  0.59776868  1.0
  P  P7571  1  0.11536326  0.42037809  0.59776868  1.0
  P  P7572  1  0.11536326  0.54537809  0.59776868  1.0
  P  P7573  1  0.11536326  0.67037809  0.59776868  1.0
  P  P7574  1  0.11536326  0.79537809  0.59776868  1.0
  P  P7575  1  0.11536326  0.92037809  0.59776868  1.0
  P  P7576  1  0.22647437  0.04537809  0.59776868  1.0
  P  P7577  1  0.22647437  0.17037809  0.59776868  1.0
  P  P7578  1  0.22647437  0.29537809  0.59776868  1.0
  P  P7579  1  0.22647437  0.42037809  0.59776868  1.0
  P  P7580  1  0.22647437  0.54537809  0.59776868  1.0
  P  P7581  1  0.22647437  0.67037809  0.59776868  1.0
  P  P7582  1  0.22647437  0.79537809  0.59776868  1.0
  P  P7583  1  0.22647437  0.92037809  0.59776868  1.0
  P  P7584  1  0.33758548  0.04537809  0.59776868  1.0
  P  P7585  1  0.33758548  0.17037809  0.59776868  1.0
  P  P7586  1  0.33758548  0.29537809  0.59776868  1.0
  P  P7587  1  0.33758548  0.42037809  0.59776868  1.0
  P  P7588  1  0.33758548  0.54537809  0.59776868  1.0
  P  P7589  1  0.33758548  0.67037809  0.59776868  1.0
  P  P7590  1  0.33758548  0.79537809  0.59776868  1.0
  P  P7591  1  0.33758548  0.92037809  0.59776868  1.0
  P  P7592  1  0.44869659  0.04537809  0.59776868  1.0
  P  P7593  1  0.44869659  0.17037809  0.59776868  1.0
  P  P7594  1  0.44869659  0.29537809  0.59776868  1.0
  P  P7595  1  0.44869659  0.42037809  0.59776868  1.0
  P  P7596  1  0.44869659  0.54537809  0.59776868  1.0
  P  P7597  1  0.44869659  0.67037809  0.59776868  1.0
  P  P7598  1  0.44869659  0.79537809  0.59776868  1.0
  P  P7599  1  0.44869659  0.92037809  0.59776868  1.0
  P  P7600  1  0.55980770  0.04537809  0.59776868  1.0
  P  P7601  1  0.55980770  0.17037809  0.59776868  1.0
  P  P7602  1  0.55980770  0.29537809  0.59776868  1.0
  P  P7603  1  0.55980770  0.42037809  0.59776868  1.0
  P  P7604  1  0.55980770  0.54537809  0.59776868  1.0
  P  P7605  1  0.55980770  0.67037809  0.59776868  1.0
  P  P7606  1  0.55980770  0.79537809  0.59776868  1.0
  P  P7607  1  0.55980770  0.92037809  0.59776868  1.0
  P  P7608  1  0.67091881  0.04537809  0.59776868  1.0
  P  P7609  1  0.67091881  0.17037809  0.59776868  1.0
  P  P7610  1  0.67091881  0.29537809  0.59776868  1.0
  P  P7611  1  0.67091881  0.42037809  0.59776868  1.0
  P  P7612  1  0.67091881  0.54537809  0.59776868  1.0
  P  P7613  1  0.67091881  0.67037809  0.59776868  1.0
  P  P7614  1  0.67091881  0.79537809  0.59776868  1.0
  P  P7615  1  0.67091881  0.92037809  0.59776868  1.0
  P  P7616  1  0.78202992  0.04537809  0.59776868  1.0
  P  P7617  1  0.78202992  0.17037809  0.59776868  1.0
  P  P7618  1  0.78202992  0.29537809  0.59776868  1.0
  P  P7619  1  0.78202992  0.42037809  0.59776868  1.0
  P  P7620  1  0.78202992  0.54537809  0.59776868  1.0
  P  P7621  1  0.78202992  0.67037809  0.59776868  1.0
  P  P7622  1  0.78202992  0.79537809  0.59776868  1.0
  P  P7623  1  0.78202992  0.92037809  0.59776868  1.0
  P  P7624  1  0.89314103  0.04537809  0.59776868  1.0
  P  P7625  1  0.89314103  0.17037809  0.59776868  1.0
  P  P7626  1  0.89314103  0.29537809  0.59776868  1.0
  P  P7627  1  0.89314103  0.42037809  0.59776868  1.0
  P  P7628  1  0.89314103  0.54537809  0.59776868  1.0
  P  P7629  1  0.89314103  0.67037809  0.59776868  1.0
  P  P7630  1  0.89314103  0.79537809  0.59776868  1.0
  P  P7631  1  0.89314103  0.92037809  0.59776868  1.0
  P  P7632  1  0.09165019  0.12004423  0.54860727  1.0
  P  P7633  1  0.09165019  0.24504423  0.54860727  1.0
  P  P7634  1  0.09165019  0.37004423  0.54860727  1.0
  P  P7635  1  0.09165019  0.49504423  0.54860727  1.0
  P  P7636  1  0.09165019  0.62004423  0.54860727  1.0
  P  P7637  1  0.09165019  0.74504423  0.54860727  1.0
  P  P7638  1  0.09165019  0.87004423  0.54860727  1.0
  P  P7639  1  0.09165019  0.99504423  0.54860727  1.0
  P  P7640  1  0.20276130  0.12004423  0.54860727  1.0
  P  P7641  1  0.20276130  0.24504423  0.54860727  1.0
  P  P7642  1  0.20276130  0.37004423  0.54860727  1.0
  P  P7643  1  0.20276130  0.49504423  0.54860727  1.0
  P  P7644  1  0.20276130  0.62004423  0.54860727  1.0
  P  P7645  1  0.20276130  0.74504423  0.54860727  1.0
  P  P7646  1  0.20276130  0.87004423  0.54860727  1.0
  P  P7647  1  0.20276130  0.99504423  0.54860727  1.0
  P  P7648  1  0.31387242  0.12004423  0.54860727  1.0
  P  P7649  1  0.31387242  0.24504423  0.54860727  1.0
  P  P7650  1  0.31387242  0.37004423  0.54860727  1.0
  P  P7651  1  0.31387242  0.49504423  0.54860727  1.0
  P  P7652  1  0.31387242  0.62004423  0.54860727  1.0
  P  P7653  1  0.31387242  0.74504423  0.54860727  1.0
  P  P7654  1  0.31387242  0.87004423  0.54860727  1.0
  P  P7655  1  0.31387242  0.99504423  0.54860727  1.0
  P  P7656  1  0.42498353  0.12004423  0.54860727  1.0
  P  P7657  1  0.42498353  0.24504423  0.54860727  1.0
  P  P7658  1  0.42498353  0.37004423  0.54860727  1.0
  P  P7659  1  0.42498353  0.49504423  0.54860727  1.0
  P  P7660  1  0.42498353  0.62004423  0.54860727  1.0
  P  P7661  1  0.42498353  0.74504423  0.54860727  1.0
  P  P7662  1  0.42498353  0.87004423  0.54860727  1.0
  P  P7663  1  0.42498353  0.99504423  0.54860727  1.0
  P  P7664  1  0.53609464  0.12004423  0.54860727  1.0
  P  P7665  1  0.53609464  0.24504423  0.54860727  1.0
  P  P7666  1  0.53609464  0.37004423  0.54860727  1.0
  P  P7667  1  0.53609464  0.49504423  0.54860727  1.0
  P  P7668  1  0.53609464  0.62004423  0.54860727  1.0
  P  P7669  1  0.53609464  0.74504423  0.54860727  1.0
  P  P7670  1  0.53609464  0.87004423  0.54860727  1.0
  P  P7671  1  0.53609464  0.99504423  0.54860727  1.0
  P  P7672  1  0.64720575  0.12004423  0.54860727  1.0
  P  P7673  1  0.64720575  0.24504423  0.54860727  1.0
  P  P7674  1  0.64720575  0.37004423  0.54860727  1.0
  P  P7675  1  0.64720575  0.49504423  0.54860727  1.0
  P  P7676  1  0.64720575  0.62004423  0.54860727  1.0
  P  P7677  1  0.64720575  0.74504423  0.54860727  1.0
  P  P7678  1  0.64720575  0.87004423  0.54860727  1.0
  P  P7679  1  0.64720575  0.99504423  0.54860727  1.0
  P  P7680  1  0.75831686  0.12004423  0.54860727  1.0
  P  P7681  1  0.75831686  0.24504423  0.54860727  1.0
  P  P7682  1  0.75831686  0.37004423  0.54860727  1.0
  P  P7683  1  0.75831686  0.49504423  0.54860727  1.0
  P  P7684  1  0.75831686  0.62004423  0.54860727  1.0
  P  P7685  1  0.75831686  0.74504423  0.54860727  1.0
  P  P7686  1  0.75831686  0.87004423  0.54860727  1.0
  P  P7687  1  0.75831686  0.99504423  0.54860727  1.0
  P  P7688  1  0.86942797  0.12004423  0.54860727  1.0
  P  P7689  1  0.86942797  0.24504423  0.54860727  1.0
  P  P7690  1  0.86942797  0.37004423  0.54860727  1.0
  P  P7691  1  0.86942797  0.49504423  0.54860727  1.0
  P  P7692  1  0.86942797  0.62004423  0.54860727  1.0
  P  P7693  1  0.86942797  0.74504423  0.54860727  1.0
  P  P7694  1  0.86942797  0.87004423  0.54860727  1.0
  P  P7695  1  0.86942797  0.99504423  0.54860727  1.0
  P  P7696  1  0.98053908  0.12004423  0.54860727  1.0
  P  P7697  1  0.98053908  0.24504423  0.54860727  1.0
  P  P7698  1  0.98053908  0.37004423  0.54860727  1.0
  P  P7699  1  0.98053908  0.49504423  0.54860727  1.0
  P  P7700  1  0.98053908  0.62004423  0.54860727  1.0
  P  P7701  1  0.98053908  0.74504423  0.54860727  1.0
  P  P7702  1  0.98053908  0.87004423  0.54860727  1.0
  P  P7703  1  0.98053908  0.99504423  0.54860727  1.0
  P  P7704  1  0.06519517  0.12004423  0.50098823  1.0
  P  P7705  1  0.06519517  0.24504423  0.50098823  1.0
  P  P7706  1  0.06519517  0.37004423  0.50098823  1.0
  P  P7707  1  0.06519517  0.49504423  0.50098823  1.0
  P  P7708  1  0.06519517  0.62004423  0.50098823  1.0
  P  P7709  1  0.06519517  0.74504423  0.50098823  1.0
  P  P7710  1  0.06519517  0.87004423  0.50098823  1.0
  P  P7711  1  0.06519517  0.99504423  0.50098823  1.0
  P  P7712  1  0.17630628  0.12004423  0.50098823  1.0
  P  P7713  1  0.17630628  0.24504423  0.50098823  1.0
  P  P7714  1  0.17630628  0.37004423  0.50098823  1.0
  P  P7715  1  0.17630628  0.49504423  0.50098823  1.0
  P  P7716  1  0.17630628  0.62004423  0.50098823  1.0
  P  P7717  1  0.17630628  0.74504423  0.50098823  1.0
  P  P7718  1  0.17630628  0.87004423  0.50098823  1.0
  P  P7719  1  0.17630628  0.99504423  0.50098823  1.0
  P  P7720  1  0.28741739  0.12004423  0.50098823  1.0
  P  P7721  1  0.28741739  0.24504423  0.50098823  1.0
  P  P7722  1  0.28741739  0.37004423  0.50098823  1.0
  P  P7723  1  0.28741739  0.49504423  0.50098823  1.0
  P  P7724  1  0.28741739  0.62004423  0.50098823  1.0
  P  P7725  1  0.28741739  0.74504423  0.50098823  1.0
  P  P7726  1  0.28741739  0.87004423  0.50098823  1.0
  P  P7727  1  0.28741739  0.99504423  0.50098823  1.0
  P  P7728  1  0.39852850  0.12004423  0.50098823  1.0
  P  P7729  1  0.39852850  0.24504423  0.50098823  1.0
  P  P7730  1  0.39852850  0.37004423  0.50098823  1.0
  P  P7731  1  0.39852850  0.49504423  0.50098823  1.0
  P  P7732  1  0.39852850  0.62004423  0.50098823  1.0
  P  P7733  1  0.39852850  0.74504423  0.50098823  1.0
  P  P7734  1  0.39852850  0.87004423  0.50098823  1.0
  P  P7735  1  0.39852850  0.99504423  0.50098823  1.0
  P  P7736  1  0.50963961  0.12004423  0.50098823  1.0
  P  P7737  1  0.50963961  0.24504423  0.50098823  1.0
  P  P7738  1  0.50963961  0.37004423  0.50098823  1.0
  P  P7739  1  0.50963961  0.49504423  0.50098823  1.0
  P  P7740  1  0.50963961  0.62004423  0.50098823  1.0
  P  P7741  1  0.50963961  0.74504423  0.50098823  1.0
  P  P7742  1  0.50963961  0.87004423  0.50098823  1.0
  P  P7743  1  0.50963961  0.99504423  0.50098823  1.0
  P  P7744  1  0.62075072  0.12004423  0.50098823  1.0
  P  P7745  1  0.62075072  0.24504423  0.50098823  1.0
  P  P7746  1  0.62075072  0.37004423  0.50098823  1.0
  P  P7747  1  0.62075072  0.49504423  0.50098823  1.0
  P  P7748  1  0.62075072  0.62004423  0.50098823  1.0
  P  P7749  1  0.62075072  0.74504423  0.50098823  1.0
  P  P7750  1  0.62075072  0.87004423  0.50098823  1.0
  P  P7751  1  0.62075072  0.99504423  0.50098823  1.0
  P  P7752  1  0.73186183  0.12004423  0.50098823  1.0
  P  P7753  1  0.73186183  0.24504423  0.50098823  1.0
  P  P7754  1  0.73186183  0.37004423  0.50098823  1.0
  P  P7755  1  0.73186183  0.49504423  0.50098823  1.0
  P  P7756  1  0.73186183  0.62004423  0.50098823  1.0
  P  P7757  1  0.73186183  0.74504423  0.50098823  1.0
  P  P7758  1  0.73186183  0.87004423  0.50098823  1.0
  P  P7759  1  0.73186183  0.99504423  0.50098823  1.0
  P  P7760  1  0.84297294  0.12004423  0.50098823  1.0
  P  P7761  1  0.84297294  0.24504423  0.50098823  1.0
  P  P7762  1  0.84297294  0.37004423  0.50098823  1.0
  P  P7763  1  0.84297294  0.49504423  0.50098823  1.0
  P  P7764  1  0.84297294  0.62004423  0.50098823  1.0
  P  P7765  1  0.84297294  0.74504423  0.50098823  1.0
  P  P7766  1  0.84297294  0.87004423  0.50098823  1.0
  P  P7767  1  0.84297294  0.99504423  0.50098823  1.0
  P  P7768  1  0.95408406  0.12004423  0.50098823  1.0
  P  P7769  1  0.95408406  0.24504423  0.50098823  1.0
  P  P7770  1  0.95408406  0.37004423  0.50098823  1.0
  P  P7771  1  0.95408406  0.49504423  0.50098823  1.0
  P  P7772  1  0.95408406  0.62004423  0.50098823  1.0
  P  P7773  1  0.95408406  0.74504423  0.50098823  1.0
  P  P7774  1  0.95408406  0.87004423  0.50098823  1.0
  P  P7775  1  0.95408406  0.99504423  0.50098823  1.0
  P  P7776  1  0.00699411  0.12004423  0.59622632  1.0
  P  P7777  1  0.00699411  0.24504423  0.59622632  1.0
  P  P7778  1  0.00699411  0.37004423  0.59622632  1.0
  P  P7779  1  0.00699411  0.49504423  0.59622632  1.0
  P  P7780  1  0.00699411  0.62004423  0.59622632  1.0
  P  P7781  1  0.00699411  0.74504423  0.59622632  1.0
  P  P7782  1  0.00699411  0.87004423  0.59622632  1.0
  P  P7783  1  0.00699411  0.99504423  0.59622632  1.0
  P  P7784  1  0.11810522  0.12004423  0.59622632  1.0
  P  P7785  1  0.11810522  0.24504423  0.59622632  1.0
  P  P7786  1  0.11810522  0.37004423  0.59622632  1.0
  P  P7787  1  0.11810522  0.49504423  0.59622632  1.0
  P  P7788  1  0.11810522  0.62004423  0.59622632  1.0
  P  P7789  1  0.11810522  0.74504423  0.59622632  1.0
  P  P7790  1  0.11810522  0.87004423  0.59622632  1.0
  P  P7791  1  0.11810522  0.99504423  0.59622632  1.0
  P  P7792  1  0.22921633  0.12004423  0.59622632  1.0
  P  P7793  1  0.22921633  0.24504423  0.59622632  1.0
  P  P7794  1  0.22921633  0.37004423  0.59622632  1.0
  P  P7795  1  0.22921633  0.49504423  0.59622632  1.0
  P  P7796  1  0.22921633  0.62004423  0.59622632  1.0
  P  P7797  1  0.22921633  0.74504423  0.59622632  1.0
  P  P7798  1  0.22921633  0.87004423  0.59622632  1.0
  P  P7799  1  0.22921633  0.99504423  0.59622632  1.0
  P  P7800  1  0.34032744  0.12004423  0.59622632  1.0
  P  P7801  1  0.34032744  0.24504423  0.59622632  1.0
  P  P7802  1  0.34032744  0.37004423  0.59622632  1.0
  P  P7803  1  0.34032744  0.49504423  0.59622632  1.0
  P  P7804  1  0.34032744  0.62004423  0.59622632  1.0
  P  P7805  1  0.34032744  0.74504423  0.59622632  1.0
  P  P7806  1  0.34032744  0.87004423  0.59622632  1.0
  P  P7807  1  0.34032744  0.99504423  0.59622632  1.0
  P  P7808  1  0.45143855  0.12004423  0.59622632  1.0
  P  P7809  1  0.45143855  0.24504423  0.59622632  1.0
  P  P7810  1  0.45143855  0.37004423  0.59622632  1.0
  P  P7811  1  0.45143855  0.49504423  0.59622632  1.0
  P  P7812  1  0.45143855  0.62004423  0.59622632  1.0
  P  P7813  1  0.45143855  0.74504423  0.59622632  1.0
  P  P7814  1  0.45143855  0.87004423  0.59622632  1.0
  P  P7815  1  0.45143855  0.99504423  0.59622632  1.0
  P  P7816  1  0.56254966  0.12004423  0.59622632  1.0
  P  P7817  1  0.56254966  0.24504423  0.59622632  1.0
  P  P7818  1  0.56254966  0.37004423  0.59622632  1.0
  P  P7819  1  0.56254966  0.49504423  0.59622632  1.0
  P  P7820  1  0.56254966  0.62004423  0.59622632  1.0
  P  P7821  1  0.56254966  0.74504423  0.59622632  1.0
  P  P7822  1  0.56254966  0.87004423  0.59622632  1.0
  P  P7823  1  0.56254966  0.99504423  0.59622632  1.0
  P  P7824  1  0.67366078  0.12004423  0.59622632  1.0
  P  P7825  1  0.67366078  0.24504423  0.59622632  1.0
  P  P7826  1  0.67366078  0.37004423  0.59622632  1.0
  P  P7827  1  0.67366078  0.49504423  0.59622632  1.0
  P  P7828  1  0.67366078  0.62004423  0.59622632  1.0
  P  P7829  1  0.67366078  0.74504423  0.59622632  1.0
  P  P7830  1  0.67366078  0.87004423  0.59622632  1.0
  P  P7831  1  0.67366078  0.99504423  0.59622632  1.0
  P  P7832  1  0.78477189  0.12004423  0.59622632  1.0
  P  P7833  1  0.78477189  0.24504423  0.59622632  1.0
  P  P7834  1  0.78477189  0.37004423  0.59622632  1.0
  P  P7835  1  0.78477189  0.49504423  0.59622632  1.0
  P  P7836  1  0.78477189  0.62004423  0.59622632  1.0
  P  P7837  1  0.78477189  0.74504423  0.59622632  1.0
  P  P7838  1  0.78477189  0.87004423  0.59622632  1.0
  P  P7839  1  0.78477189  0.99504423  0.59622632  1.0
  P  P7840  1  0.89588300  0.12004423  0.59622632  1.0
  P  P7841  1  0.89588300  0.24504423  0.59622632  1.0
  P  P7842  1  0.89588300  0.37004423  0.59622632  1.0
  P  P7843  1  0.89588300  0.49504423  0.59622632  1.0
  P  P7844  1  0.89588300  0.62004423  0.59622632  1.0
  P  P7845  1  0.89588300  0.74504423  0.59622632  1.0
  P  P7846  1  0.89588300  0.87004423  0.59622632  1.0
  P  P7847  1  0.89588300  0.99504423  0.59622632  1.0
  P  P7848  1  0.05805868  0.00495577  0.53625250  1.0
  P  P7849  1  0.05805868  0.12995577  0.53625250  1.0
  P  P7850  1  0.05805868  0.25495577  0.53625250  1.0
  P  P7851  1  0.05805868  0.37995577  0.53625250  1.0
  P  P7852  1  0.05805868  0.50495577  0.53625250  1.0
  P  P7853  1  0.05805868  0.62995577  0.53625250  1.0
  P  P7854  1  0.05805868  0.75495577  0.53625250  1.0
  P  P7855  1  0.05805868  0.87995577  0.53625250  1.0
  P  P7856  1  0.16916979  0.00495577  0.53625250  1.0
  P  P7857  1  0.16916979  0.12995577  0.53625250  1.0
  P  P7858  1  0.16916979  0.25495577  0.53625250  1.0
  P  P7859  1  0.16916979  0.37995577  0.53625250  1.0
  P  P7860  1  0.16916979  0.50495577  0.53625250  1.0
  P  P7861  1  0.16916979  0.62995577  0.53625250  1.0
  P  P7862  1  0.16916979  0.75495577  0.53625250  1.0
  P  P7863  1  0.16916979  0.87995577  0.53625250  1.0
  P  P7864  1  0.28028090  0.00495577  0.53625250  1.0
  P  P7865  1  0.28028090  0.12995577  0.53625250  1.0
  P  P7866  1  0.28028090  0.25495577  0.53625250  1.0
  P  P7867  1  0.28028090  0.37995577  0.53625250  1.0
  P  P7868  1  0.28028090  0.50495577  0.53625250  1.0
  P  P7869  1  0.28028090  0.62995577  0.53625250  1.0
  P  P7870  1  0.28028090  0.75495577  0.53625250  1.0
  P  P7871  1  0.28028090  0.87995577  0.53625250  1.0
  P  P7872  1  0.39139201  0.00495577  0.53625250  1.0
  P  P7873  1  0.39139201  0.12995577  0.53625250  1.0
  P  P7874  1  0.39139201  0.25495577  0.53625250  1.0
  P  P7875  1  0.39139201  0.37995577  0.53625250  1.0
  P  P7876  1  0.39139201  0.50495577  0.53625250  1.0
  P  P7877  1  0.39139201  0.62995577  0.53625250  1.0
  P  P7878  1  0.39139201  0.75495577  0.53625250  1.0
  P  P7879  1  0.39139201  0.87995577  0.53625250  1.0
  P  P7880  1  0.50250312  0.00495577  0.53625250  1.0
  P  P7881  1  0.50250312  0.12995577  0.53625250  1.0
  P  P7882  1  0.50250312  0.25495577  0.53625250  1.0
  P  P7883  1  0.50250312  0.37995577  0.53625250  1.0
  P  P7884  1  0.50250312  0.50495577  0.53625250  1.0
  P  P7885  1  0.50250312  0.62995577  0.53625250  1.0
  P  P7886  1  0.50250312  0.75495577  0.53625250  1.0
  P  P7887  1  0.50250312  0.87995577  0.53625250  1.0
  P  P7888  1  0.61361423  0.00495577  0.53625250  1.0
  P  P7889  1  0.61361423  0.12995577  0.53625250  1.0
  P  P7890  1  0.61361423  0.25495577  0.53625250  1.0
  P  P7891  1  0.61361423  0.37995577  0.53625250  1.0
  P  P7892  1  0.61361423  0.50495577  0.53625250  1.0
  P  P7893  1  0.61361423  0.62995577  0.53625250  1.0
  P  P7894  1  0.61361423  0.75495577  0.53625250  1.0
  P  P7895  1  0.61361423  0.87995577  0.53625250  1.0
  P  P7896  1  0.72472534  0.00495577  0.53625250  1.0
  P  P7897  1  0.72472534  0.12995577  0.53625250  1.0
  P  P7898  1  0.72472534  0.25495577  0.53625250  1.0
  P  P7899  1  0.72472534  0.37995577  0.53625250  1.0
  P  P7900  1  0.72472534  0.50495577  0.53625250  1.0
  P  P7901  1  0.72472534  0.62995577  0.53625250  1.0
  P  P7902  1  0.72472534  0.75495577  0.53625250  1.0
  P  P7903  1  0.72472534  0.87995577  0.53625250  1.0
  P  P7904  1  0.83583646  0.00495577  0.53625250  1.0
  P  P7905  1  0.83583646  0.12995577  0.53625250  1.0
  P  P7906  1  0.83583646  0.25495577  0.53625250  1.0
  P  P7907  1  0.83583646  0.37995577  0.53625250  1.0
  P  P7908  1  0.83583646  0.50495577  0.53625250  1.0
  P  P7909  1  0.83583646  0.62995577  0.53625250  1.0
  P  P7910  1  0.83583646  0.75495577  0.53625250  1.0
  P  P7911  1  0.83583646  0.87995577  0.53625250  1.0
  P  P7912  1  0.94694757  0.00495577  0.53625250  1.0
  P  P7913  1  0.94694757  0.12995577  0.53625250  1.0
  P  P7914  1  0.94694757  0.25495577  0.53625250  1.0
  P  P7915  1  0.94694757  0.37995577  0.53625250  1.0
  P  P7916  1  0.94694757  0.50495577  0.53625250  1.0
  P  P7917  1  0.94694757  0.62995577  0.53625250  1.0
  P  P7918  1  0.94694757  0.75495577  0.53625250  1.0
  P  P7919  1  0.94694757  0.87995577  0.53625250  1.0
  P  P7920  1  0.11096873  0.00495577  0.63149060  1.0
  P  P7921  1  0.11096873  0.12995577  0.63149060  1.0
  P  P7922  1  0.11096873  0.25495577  0.63149060  1.0
  P  P7923  1  0.11096873  0.37995577  0.63149060  1.0
  P  P7924  1  0.11096873  0.50495577  0.63149060  1.0
  P  P7925  1  0.11096873  0.62995577  0.63149060  1.0
  P  P7926  1  0.11096873  0.75495577  0.63149060  1.0
  P  P7927  1  0.11096873  0.87995577  0.63149060  1.0
  P  P7928  1  0.22207984  0.00495577  0.63149060  1.0
  P  P7929  1  0.22207984  0.12995577  0.63149060  1.0
  P  P7930  1  0.22207984  0.25495577  0.63149060  1.0
  P  P7931  1  0.22207984  0.37995577  0.63149060  1.0
  P  P7932  1  0.22207984  0.50495577  0.63149060  1.0
  P  P7933  1  0.22207984  0.62995577  0.63149060  1.0
  P  P7934  1  0.22207984  0.75495577  0.63149060  1.0
  P  P7935  1  0.22207984  0.87995577  0.63149060  1.0
  P  P7936  1  0.33319095  0.00495577  0.63149060  1.0
  P  P7937  1  0.33319095  0.12995577  0.63149060  1.0
  P  P7938  1  0.33319095  0.25495577  0.63149060  1.0
  P  P7939  1  0.33319095  0.37995577  0.63149060  1.0
  P  P7940  1  0.33319095  0.50495577  0.63149060  1.0
  P  P7941  1  0.33319095  0.62995577  0.63149060  1.0
  P  P7942  1  0.33319095  0.75495577  0.63149060  1.0
  P  P7943  1  0.33319095  0.87995577  0.63149060  1.0
  P  P7944  1  0.44430206  0.00495577  0.63149060  1.0
  P  P7945  1  0.44430206  0.12995577  0.63149060  1.0
  P  P7946  1  0.44430206  0.25495577  0.63149060  1.0
  P  P7947  1  0.44430206  0.37995577  0.63149060  1.0
  P  P7948  1  0.44430206  0.50495577  0.63149060  1.0
  P  P7949  1  0.44430206  0.62995577  0.63149060  1.0
  P  P7950  1  0.44430206  0.75495577  0.63149060  1.0
  P  P7951  1  0.44430206  0.87995577  0.63149060  1.0
  P  P7952  1  0.55541317  0.00495577  0.63149060  1.0
  P  P7953  1  0.55541317  0.12995577  0.63149060  1.0
  P  P7954  1  0.55541317  0.25495577  0.63149060  1.0
  P  P7955  1  0.55541317  0.37995577  0.63149060  1.0
  P  P7956  1  0.55541317  0.50495577  0.63149060  1.0
  P  P7957  1  0.55541317  0.62995577  0.63149060  1.0
  P  P7958  1  0.55541317  0.75495577  0.63149060  1.0
  P  P7959  1  0.55541317  0.87995577  0.63149060  1.0
  P  P7960  1  0.66652429  0.00495577  0.63149060  1.0
  P  P7961  1  0.66652429  0.12995577  0.63149060  1.0
  P  P7962  1  0.66652429  0.25495577  0.63149060  1.0
  P  P7963  1  0.66652429  0.37995577  0.63149060  1.0
  P  P7964  1  0.66652429  0.50495577  0.63149060  1.0
  P  P7965  1  0.66652429  0.62995577  0.63149060  1.0
  P  P7966  1  0.66652429  0.75495577  0.63149060  1.0
  P  P7967  1  0.66652429  0.87995577  0.63149060  1.0
  P  P7968  1  0.77763540  0.00495577  0.63149060  1.0
  P  P7969  1  0.77763540  0.12995577  0.63149060  1.0
  P  P7970  1  0.77763540  0.25495577  0.63149060  1.0
  P  P7971  1  0.77763540  0.37995577  0.63149060  1.0
  P  P7972  1  0.77763540  0.50495577  0.63149060  1.0
  P  P7973  1  0.77763540  0.62995577  0.63149060  1.0
  P  P7974  1  0.77763540  0.75495577  0.63149060  1.0
  P  P7975  1  0.77763540  0.87995577  0.63149060  1.0
  P  P7976  1  0.88874651  0.00495577  0.63149060  1.0
  P  P7977  1  0.88874651  0.12995577  0.63149060  1.0
  P  P7978  1  0.88874651  0.25495577  0.63149060  1.0
  P  P7979  1  0.88874651  0.37995577  0.63149060  1.0
  P  P7980  1  0.88874651  0.50495577  0.63149060  1.0
  P  P7981  1  0.88874651  0.62995577  0.63149060  1.0
  P  P7982  1  0.88874651  0.75495577  0.63149060  1.0
  P  P7983  1  0.88874651  0.87995577  0.63149060  1.0
  P  P7984  1  0.99985762  0.00495577  0.63149060  1.0
  P  P7985  1  0.99985762  0.12995577  0.63149060  1.0
  P  P7986  1  0.99985762  0.25495577  0.63149060  1.0
  P  P7987  1  0.99985762  0.37995577  0.63149060  1.0
  P  P7988  1  0.99985762  0.50495577  0.63149060  1.0
  P  P7989  1  0.99985762  0.62995577  0.63149060  1.0
  P  P7990  1  0.99985762  0.75495577  0.63149060  1.0
  P  P7991  1  0.99985762  0.87995577  0.63149060  1.0
  P  P7992  1  0.08451370  0.00495577  0.58387155  1.0
  P  P7993  1  0.08451370  0.12995577  0.58387155  1.0
  P  P7994  1  0.08451370  0.25495577  0.58387155  1.0
  P  P7995  1  0.08451370  0.37995577  0.58387155  1.0
  P  P7996  1  0.08451370  0.50495577  0.58387155  1.0
  P  P7997  1  0.08451370  0.62995577  0.58387155  1.0
  P  P7998  1  0.08451370  0.75495577  0.58387155  1.0
  P  P7999  1  0.08451370  0.87995577  0.58387155  1.0
  P  P8000  1  0.19562482  0.00495577  0.58387155  1.0
  P  P8001  1  0.19562482  0.12995577  0.58387155  1.0
  P  P8002  1  0.19562482  0.25495577  0.58387155  1.0
  P  P8003  1  0.19562482  0.37995577  0.58387155  1.0
  P  P8004  1  0.19562482  0.50495577  0.58387155  1.0
  P  P8005  1  0.19562482  0.62995577  0.58387155  1.0
  P  P8006  1  0.19562482  0.75495577  0.58387155  1.0
  P  P8007  1  0.19562482  0.87995577  0.58387155  1.0
  P  P8008  1  0.30673593  0.00495577  0.58387155  1.0
  P  P8009  1  0.30673593  0.12995577  0.58387155  1.0
  P  P8010  1  0.30673593  0.25495577  0.58387155  1.0
  P  P8011  1  0.30673593  0.37995577  0.58387155  1.0
  P  P8012  1  0.30673593  0.50495577  0.58387155  1.0
  P  P8013  1  0.30673593  0.62995577  0.58387155  1.0
  P  P8014  1  0.30673593  0.75495577  0.58387155  1.0
  P  P8015  1  0.30673593  0.87995577  0.58387155  1.0
  P  P8016  1  0.41784704  0.00495577  0.58387155  1.0
  P  P8017  1  0.41784704  0.12995577  0.58387155  1.0
  P  P8018  1  0.41784704  0.25495577  0.58387155  1.0
  P  P8019  1  0.41784704  0.37995577  0.58387155  1.0
  P  P8020  1  0.41784704  0.50495577  0.58387155  1.0
  P  P8021  1  0.41784704  0.62995577  0.58387155  1.0
  P  P8022  1  0.41784704  0.75495577  0.58387155  1.0
  P  P8023  1  0.41784704  0.87995577  0.58387155  1.0
  P  P8024  1  0.52895815  0.00495577  0.58387155  1.0
  P  P8025  1  0.52895815  0.12995577  0.58387155  1.0
  P  P8026  1  0.52895815  0.25495577  0.58387155  1.0
  P  P8027  1  0.52895815  0.37995577  0.58387155  1.0
  P  P8028  1  0.52895815  0.50495577  0.58387155  1.0
  P  P8029  1  0.52895815  0.62995577  0.58387155  1.0
  P  P8030  1  0.52895815  0.75495577  0.58387155  1.0
  P  P8031  1  0.52895815  0.87995577  0.58387155  1.0
  P  P8032  1  0.64006926  0.00495577  0.58387155  1.0
  P  P8033  1  0.64006926  0.12995577  0.58387155  1.0
  P  P8034  1  0.64006926  0.25495577  0.58387155  1.0
  P  P8035  1  0.64006926  0.37995577  0.58387155  1.0
  P  P8036  1  0.64006926  0.50495577  0.58387155  1.0
  P  P8037  1  0.64006926  0.62995577  0.58387155  1.0
  P  P8038  1  0.64006926  0.75495577  0.58387155  1.0
  P  P8039  1  0.64006926  0.87995577  0.58387155  1.0
  P  P8040  1  0.75118037  0.00495577  0.58387155  1.0
  P  P8041  1  0.75118037  0.12995577  0.58387155  1.0
  P  P8042  1  0.75118037  0.25495577  0.58387155  1.0
  P  P8043  1  0.75118037  0.37995577  0.58387155  1.0
  P  P8044  1  0.75118037  0.50495577  0.58387155  1.0
  P  P8045  1  0.75118037  0.62995577  0.58387155  1.0
  P  P8046  1  0.75118037  0.75495577  0.58387155  1.0
  P  P8047  1  0.75118037  0.87995577  0.58387155  1.0
  P  P8048  1  0.86229148  0.00495577  0.58387155  1.0
  P  P8049  1  0.86229148  0.12995577  0.58387155  1.0
  P  P8050  1  0.86229148  0.25495577  0.58387155  1.0
  P  P8051  1  0.86229148  0.37995577  0.58387155  1.0
  P  P8052  1  0.86229148  0.50495577  0.58387155  1.0
  P  P8053  1  0.86229148  0.62995577  0.58387155  1.0
  P  P8054  1  0.86229148  0.75495577  0.58387155  1.0
  P  P8055  1  0.86229148  0.87995577  0.58387155  1.0
  P  P8056  1  0.97340259  0.00495577  0.58387155  1.0
  P  P8057  1  0.97340259  0.12995577  0.58387155  1.0
  P  P8058  1  0.97340259  0.25495577  0.58387155  1.0
  P  P8059  1  0.97340259  0.37995577  0.58387155  1.0
  P  P8060  1  0.97340259  0.50495577  0.58387155  1.0
  P  P8061  1  0.97340259  0.62995577  0.58387155  1.0
  P  P8062  1  0.97340259  0.75495577  0.58387155  1.0
  P  P8063  1  0.97340259  0.87995577  0.58387155  1.0
  P  P8064  1  0.02286712  0.06745577  0.52479775  1.0
  P  P8065  1  0.02286712  0.19245577  0.52479775  1.0
  P  P8066  1  0.02286712  0.31745577  0.52479775  1.0
  P  P8067  1  0.02286712  0.44245577  0.52479775  1.0
  P  P8068  1  0.02286712  0.56745577  0.52479775  1.0
  P  P8069  1  0.02286712  0.69245577  0.52479775  1.0
  P  P8070  1  0.02286712  0.81745577  0.52479775  1.0
  P  P8071  1  0.02286712  0.94245577  0.52479775  1.0
  P  P8072  1  0.13397824  0.06745577  0.52479775  1.0
  P  P8073  1  0.13397824  0.19245577  0.52479775  1.0
  P  P8074  1  0.13397824  0.31745577  0.52479775  1.0
  P  P8075  1  0.13397824  0.44245577  0.52479775  1.0
  P  P8076  1  0.13397824  0.56745577  0.52479775  1.0
  P  P8077  1  0.13397824  0.69245577  0.52479775  1.0
  P  P8078  1  0.13397824  0.81745577  0.52479775  1.0
  P  P8079  1  0.13397824  0.94245577  0.52479775  1.0
  P  P8080  1  0.24508935  0.06745577  0.52479775  1.0
  P  P8081  1  0.24508935  0.19245577  0.52479775  1.0
  P  P8082  1  0.24508935  0.31745577  0.52479775  1.0
  P  P8083  1  0.24508935  0.44245577  0.52479775  1.0
  P  P8084  1  0.24508935  0.56745577  0.52479775  1.0
  P  P8085  1  0.24508935  0.69245577  0.52479775  1.0
  P  P8086  1  0.24508935  0.81745577  0.52479775  1.0
  P  P8087  1  0.24508935  0.94245577  0.52479775  1.0
  P  P8088  1  0.35620046  0.06745577  0.52479775  1.0
  P  P8089  1  0.35620046  0.19245577  0.52479775  1.0
  P  P8090  1  0.35620046  0.31745577  0.52479775  1.0
  P  P8091  1  0.35620046  0.44245577  0.52479775  1.0
  P  P8092  1  0.35620046  0.56745577  0.52479775  1.0
  P  P8093  1  0.35620046  0.69245577  0.52479775  1.0
  P  P8094  1  0.35620046  0.81745577  0.52479775  1.0
  P  P8095  1  0.35620046  0.94245577  0.52479775  1.0
  P  P8096  1  0.46731157  0.06745577  0.52479775  1.0
  P  P8097  1  0.46731157  0.19245577  0.52479775  1.0
  P  P8098  1  0.46731157  0.31745577  0.52479775  1.0
  P  P8099  1  0.46731157  0.44245577  0.52479775  1.0
  P  P8100  1  0.46731157  0.56745577  0.52479775  1.0
  P  P8101  1  0.46731157  0.69245577  0.52479775  1.0
  P  P8102  1  0.46731157  0.81745577  0.52479775  1.0
  P  P8103  1  0.46731157  0.94245577  0.52479775  1.0
  P  P8104  1  0.57842268  0.06745577  0.52479775  1.0
  P  P8105  1  0.57842268  0.19245577  0.52479775  1.0
  P  P8106  1  0.57842268  0.31745577  0.52479775  1.0
  P  P8107  1  0.57842268  0.44245577  0.52479775  1.0
  P  P8108  1  0.57842268  0.56745577  0.52479775  1.0
  P  P8109  1  0.57842268  0.69245577  0.52479775  1.0
  P  P8110  1  0.57842268  0.81745577  0.52479775  1.0
  P  P8111  1  0.57842268  0.94245577  0.52479775  1.0
  P  P8112  1  0.68953379  0.06745577  0.52479775  1.0
  P  P8113  1  0.68953379  0.19245577  0.52479775  1.0
  P  P8114  1  0.68953379  0.31745577  0.52479775  1.0
  P  P8115  1  0.68953379  0.44245577  0.52479775  1.0
  P  P8116  1  0.68953379  0.56745577  0.52479775  1.0
  P  P8117  1  0.68953379  0.69245577  0.52479775  1.0
  P  P8118  1  0.68953379  0.81745577  0.52479775  1.0
  P  P8119  1  0.68953379  0.94245577  0.52479775  1.0
  P  P8120  1  0.80064490  0.06745577  0.52479775  1.0
  P  P8121  1  0.80064490  0.19245577  0.52479775  1.0
  P  P8122  1  0.80064490  0.31745577  0.52479775  1.0
  P  P8123  1  0.80064490  0.44245577  0.52479775  1.0
  P  P8124  1  0.80064490  0.56745577  0.52479775  1.0
  P  P8125  1  0.80064490  0.69245577  0.52479775  1.0
  P  P8126  1  0.80064490  0.81745577  0.52479775  1.0
  P  P8127  1  0.80064490  0.94245577  0.52479775  1.0
  P  P8128  1  0.91175601  0.06745577  0.52479775  1.0
  P  P8129  1  0.91175601  0.19245577  0.52479775  1.0
  P  P8130  1  0.91175601  0.31745577  0.52479775  1.0
  P  P8131  1  0.91175601  0.44245577  0.52479775  1.0
  P  P8132  1  0.91175601  0.56745577  0.52479775  1.0
  P  P8133  1  0.91175601  0.69245577  0.52479775  1.0
  P  P8134  1  0.91175601  0.81745577  0.52479775  1.0
  P  P8135  1  0.91175601  0.94245577  0.52479775  1.0
  P  P8136  1  0.07577718  0.06745577  0.62003584  1.0
  P  P8137  1  0.07577718  0.19245577  0.62003584  1.0
  P  P8138  1  0.07577718  0.31745577  0.62003584  1.0
  P  P8139  1  0.07577718  0.44245577  0.62003584  1.0
  P  P8140  1  0.07577718  0.56745577  0.62003584  1.0
  P  P8141  1  0.07577718  0.69245577  0.62003584  1.0
  P  P8142  1  0.07577718  0.81745577  0.62003584  1.0
  P  P8143  1  0.07577718  0.94245577  0.62003584  1.0
  P  P8144  1  0.18688829  0.06745577  0.62003584  1.0
  P  P8145  1  0.18688829  0.19245577  0.62003584  1.0
  P  P8146  1  0.18688829  0.31745577  0.62003584  1.0
  P  P8147  1  0.18688829  0.44245577  0.62003584  1.0
  P  P8148  1  0.18688829  0.56745577  0.62003584  1.0
  P  P8149  1  0.18688829  0.69245577  0.62003584  1.0
  P  P8150  1  0.18688829  0.81745577  0.62003584  1.0
  P  P8151  1  0.18688829  0.94245577  0.62003584  1.0
  P  P8152  1  0.29799940  0.06745577  0.62003584  1.0
  P  P8153  1  0.29799940  0.19245577  0.62003584  1.0
  P  P8154  1  0.29799940  0.31745577  0.62003584  1.0
  P  P8155  1  0.29799940  0.44245577  0.62003584  1.0
  P  P8156  1  0.29799940  0.56745577  0.62003584  1.0
  P  P8157  1  0.29799940  0.69245577  0.62003584  1.0
  P  P8158  1  0.29799940  0.81745577  0.62003584  1.0
  P  P8159  1  0.29799940  0.94245577  0.62003584  1.0
  P  P8160  1  0.40911051  0.06745577  0.62003584  1.0
  P  P8161  1  0.40911051  0.19245577  0.62003584  1.0
  P  P8162  1  0.40911051  0.31745577  0.62003584  1.0
  P  P8163  1  0.40911051  0.44245577  0.62003584  1.0
  P  P8164  1  0.40911051  0.56745577  0.62003584  1.0
  P  P8165  1  0.40911051  0.69245577  0.62003584  1.0
  P  P8166  1  0.40911051  0.81745577  0.62003584  1.0
  P  P8167  1  0.40911051  0.94245577  0.62003584  1.0
  P  P8168  1  0.52022162  0.06745577  0.62003584  1.0
  P  P8169  1  0.52022162  0.19245577  0.62003584  1.0
  P  P8170  1  0.52022162  0.31745577  0.62003584  1.0
  P  P8171  1  0.52022162  0.44245577  0.62003584  1.0
  P  P8172  1  0.52022162  0.56745577  0.62003584  1.0
  P  P8173  1  0.52022162  0.69245577  0.62003584  1.0
  P  P8174  1  0.52022162  0.81745577  0.62003584  1.0
  P  P8175  1  0.52022162  0.94245577  0.62003584  1.0
  P  P8176  1  0.63133273  0.06745577  0.62003584  1.0
  P  P8177  1  0.63133273  0.19245577  0.62003584  1.0
  P  P8178  1  0.63133273  0.31745577  0.62003584  1.0
  P  P8179  1  0.63133273  0.44245577  0.62003584  1.0
  P  P8180  1  0.63133273  0.56745577  0.62003584  1.0
  P  P8181  1  0.63133273  0.69245577  0.62003584  1.0
  P  P8182  1  0.63133273  0.81745577  0.62003584  1.0
  P  P8183  1  0.63133273  0.94245577  0.62003584  1.0
  P  P8184  1  0.74244384  0.06745577  0.62003584  1.0
  P  P8185  1  0.74244384  0.19245577  0.62003584  1.0
  P  P8186  1  0.74244384  0.31745577  0.62003584  1.0
  P  P8187  1  0.74244384  0.44245577  0.62003584  1.0
  P  P8188  1  0.74244384  0.56745577  0.62003584  1.0
  P  P8189  1  0.74244384  0.69245577  0.62003584  1.0
  P  P8190  1  0.74244384  0.81745577  0.62003584  1.0
  P  P8191  1  0.74244384  0.94245577  0.62003584  1.0
  P  P8192  1  0.85355496  0.06745577  0.62003584  1.0
  P  P8193  1  0.85355496  0.19245577  0.62003584  1.0
  P  P8194  1  0.85355496  0.31745577  0.62003584  1.0
  P  P8195  1  0.85355496  0.44245577  0.62003584  1.0
  P  P8196  1  0.85355496  0.56745577  0.62003584  1.0
  P  P8197  1  0.85355496  0.69245577  0.62003584  1.0
  P  P8198  1  0.85355496  0.81745577  0.62003584  1.0
  P  P8199  1  0.85355496  0.94245577  0.62003584  1.0
  P  P8200  1  0.96466607  0.06745577  0.62003584  1.0
  P  P8201  1  0.96466607  0.19245577  0.62003584  1.0
  P  P8202  1  0.96466607  0.31745577  0.62003584  1.0
  P  P8203  1  0.96466607  0.44245577  0.62003584  1.0
  P  P8204  1  0.96466607  0.56745577  0.62003584  1.0
  P  P8205  1  0.96466607  0.69245577  0.62003584  1.0
  P  P8206  1  0.96466607  0.81745577  0.62003584  1.0
  P  P8207  1  0.96466607  0.94245577  0.62003584  1.0
  P  P8208  1  0.04932215  0.06745577  0.57241680  1.0
  P  P8209  1  0.04932215  0.19245577  0.57241680  1.0
  P  P8210  1  0.04932215  0.31745577  0.57241680  1.0
  P  P8211  1  0.04932215  0.44245577  0.57241680  1.0
  P  P8212  1  0.04932215  0.56745577  0.57241680  1.0
  P  P8213  1  0.04932215  0.69245577  0.57241680  1.0
  P  P8214  1  0.04932215  0.81745577  0.57241680  1.0
  P  P8215  1  0.04932215  0.94245577  0.57241680  1.0
  P  P8216  1  0.16043326  0.06745577  0.57241680  1.0
  P  P8217  1  0.16043326  0.19245577  0.57241680  1.0
  P  P8218  1  0.16043326  0.31745577  0.57241680  1.0
  P  P8219  1  0.16043326  0.44245577  0.57241680  1.0
  P  P8220  1  0.16043326  0.56745577  0.57241680  1.0
  P  P8221  1  0.16043326  0.69245577  0.57241680  1.0
  P  P8222  1  0.16043326  0.81745577  0.57241680  1.0
  P  P8223  1  0.16043326  0.94245577  0.57241680  1.0
  P  P8224  1  0.27154437  0.06745577  0.57241680  1.0
  P  P8225  1  0.27154437  0.19245577  0.57241680  1.0
  P  P8226  1  0.27154437  0.31745577  0.57241680  1.0
  P  P8227  1  0.27154437  0.44245577  0.57241680  1.0
  P  P8228  1  0.27154437  0.56745577  0.57241680  1.0
  P  P8229  1  0.27154437  0.69245577  0.57241680  1.0
  P  P8230  1  0.27154437  0.81745577  0.57241680  1.0
  P  P8231  1  0.27154437  0.94245577  0.57241680  1.0
  P  P8232  1  0.38265548  0.06745577  0.57241680  1.0
  P  P8233  1  0.38265548  0.19245577  0.57241680  1.0
  P  P8234  1  0.38265548  0.31745577  0.57241680  1.0
  P  P8235  1  0.38265548  0.44245577  0.57241680  1.0
  P  P8236  1  0.38265548  0.56745577  0.57241680  1.0
  P  P8237  1  0.38265548  0.69245577  0.57241680  1.0
  P  P8238  1  0.38265548  0.81745577  0.57241680  1.0
  P  P8239  1  0.38265548  0.94245577  0.57241680  1.0
  P  P8240  1  0.49376660  0.06745577  0.57241680  1.0
  P  P8241  1  0.49376660  0.19245577  0.57241680  1.0
  P  P8242  1  0.49376660  0.31745577  0.57241680  1.0
  P  P8243  1  0.49376660  0.44245577  0.57241680  1.0
  P  P8244  1  0.49376660  0.56745577  0.57241680  1.0
  P  P8245  1  0.49376660  0.69245577  0.57241680  1.0
  P  P8246  1  0.49376660  0.81745577  0.57241680  1.0
  P  P8247  1  0.49376660  0.94245577  0.57241680  1.0
  P  P8248  1  0.60487771  0.06745577  0.57241680  1.0
  P  P8249  1  0.60487771  0.19245577  0.57241680  1.0
  P  P8250  1  0.60487771  0.31745577  0.57241680  1.0
  P  P8251  1  0.60487771  0.44245577  0.57241680  1.0
  P  P8252  1  0.60487771  0.56745577  0.57241680  1.0
  P  P8253  1  0.60487771  0.69245577  0.57241680  1.0
  P  P8254  1  0.60487771  0.81745577  0.57241680  1.0
  P  P8255  1  0.60487771  0.94245577  0.57241680  1.0
  P  P8256  1  0.71598882  0.06745577  0.57241680  1.0
  P  P8257  1  0.71598882  0.19245577  0.57241680  1.0
  P  P8258  1  0.71598882  0.31745577  0.57241680  1.0
  P  P8259  1  0.71598882  0.44245577  0.57241680  1.0
  P  P8260  1  0.71598882  0.56745577  0.57241680  1.0
  P  P8261  1  0.71598882  0.69245577  0.57241680  1.0
  P  P8262  1  0.71598882  0.81745577  0.57241680  1.0
  P  P8263  1  0.71598882  0.94245577  0.57241680  1.0
  P  P8264  1  0.82709993  0.06745577  0.57241680  1.0
  P  P8265  1  0.82709993  0.19245577  0.57241680  1.0
  P  P8266  1  0.82709993  0.31745577  0.57241680  1.0
  P  P8267  1  0.82709993  0.44245577  0.57241680  1.0
  P  P8268  1  0.82709993  0.56745577  0.57241680  1.0
  P  P8269  1  0.82709993  0.69245577  0.57241680  1.0
  P  P8270  1  0.82709993  0.81745577  0.57241680  1.0
  P  P8271  1  0.82709993  0.94245577  0.57241680  1.0
  P  P8272  1  0.93821104  0.06745577  0.57241680  1.0
  P  P8273  1  0.93821104  0.19245577  0.57241680  1.0
  P  P8274  1  0.93821104  0.31745577  0.57241680  1.0
  P  P8275  1  0.93821104  0.44245577  0.57241680  1.0
  P  P8276  1  0.93821104  0.56745577  0.57241680  1.0
  P  P8277  1  0.93821104  0.69245577  0.57241680  1.0
  P  P8278  1  0.93821104  0.81745577  0.57241680  1.0
  P  P8279  1  0.93821104  0.94245577  0.57241680  1.0
  P  P8280  1  0.01573064  0.05754423  0.56006202  1.0
  P  P8281  1  0.01573064  0.18254423  0.56006202  1.0
  P  P8282  1  0.01573064  0.30754423  0.56006202  1.0
  P  P8283  1  0.01573064  0.43254423  0.56006202  1.0
  P  P8284  1  0.01573064  0.55754423  0.56006202  1.0
  P  P8285  1  0.01573064  0.68254423  0.56006202  1.0
  P  P8286  1  0.01573064  0.80754423  0.56006202  1.0
  P  P8287  1  0.01573064  0.93254423  0.56006202  1.0
  P  P8288  1  0.12684175  0.05754423  0.56006202  1.0
  P  P8289  1  0.12684175  0.18254423  0.56006202  1.0
  P  P8290  1  0.12684175  0.30754423  0.56006202  1.0
  P  P8291  1  0.12684175  0.43254423  0.56006202  1.0
  P  P8292  1  0.12684175  0.55754423  0.56006202  1.0
  P  P8293  1  0.12684175  0.68254423  0.56006202  1.0
  P  P8294  1  0.12684175  0.80754423  0.56006202  1.0
  P  P8295  1  0.12684175  0.93254423  0.56006202  1.0
  P  P8296  1  0.23795286  0.05754423  0.56006202  1.0
  P  P8297  1  0.23795286  0.18254423  0.56006202  1.0
  P  P8298  1  0.23795286  0.30754423  0.56006202  1.0
  P  P8299  1  0.23795286  0.43254423  0.56006202  1.0
  P  P8300  1  0.23795286  0.55754423  0.56006202  1.0
  P  P8301  1  0.23795286  0.68254423  0.56006202  1.0
  P  P8302  1  0.23795286  0.80754423  0.56006202  1.0
  P  P8303  1  0.23795286  0.93254423  0.56006202  1.0
  P  P8304  1  0.34906397  0.05754423  0.56006202  1.0
  P  P8305  1  0.34906397  0.18254423  0.56006202  1.0
  P  P8306  1  0.34906397  0.30754423  0.56006202  1.0
  P  P8307  1  0.34906397  0.43254423  0.56006202  1.0
  P  P8308  1  0.34906397  0.55754423  0.56006202  1.0
  P  P8309  1  0.34906397  0.68254423  0.56006202  1.0
  P  P8310  1  0.34906397  0.80754423  0.56006202  1.0
  P  P8311  1  0.34906397  0.93254423  0.56006202  1.0
  P  P8312  1  0.46017508  0.05754423  0.56006202  1.0
  P  P8313  1  0.46017508  0.18254423  0.56006202  1.0
  P  P8314  1  0.46017508  0.30754423  0.56006202  1.0
  P  P8315  1  0.46017508  0.43254423  0.56006202  1.0
  P  P8316  1  0.46017508  0.55754423  0.56006202  1.0
  P  P8317  1  0.46017508  0.68254423  0.56006202  1.0
  P  P8318  1  0.46017508  0.80754423  0.56006202  1.0
  P  P8319  1  0.46017508  0.93254423  0.56006202  1.0
  P  P8320  1  0.57128619  0.05754423  0.56006202  1.0
  P  P8321  1  0.57128619  0.18254423  0.56006202  1.0
  P  P8322  1  0.57128619  0.30754423  0.56006202  1.0
  P  P8323  1  0.57128619  0.43254423  0.56006202  1.0
  P  P8324  1  0.57128619  0.55754423  0.56006202  1.0
  P  P8325  1  0.57128619  0.68254423  0.56006202  1.0
  P  P8326  1  0.57128619  0.80754423  0.56006202  1.0
  P  P8327  1  0.57128619  0.93254423  0.56006202  1.0
  P  P8328  1  0.68239730  0.05754423  0.56006202  1.0
  P  P8329  1  0.68239730  0.18254423  0.56006202  1.0
  P  P8330  1  0.68239730  0.30754423  0.56006202  1.0
  P  P8331  1  0.68239730  0.43254423  0.56006202  1.0
  P  P8332  1  0.68239730  0.55754423  0.56006202  1.0
  P  P8333  1  0.68239730  0.68254423  0.56006202  1.0
  P  P8334  1  0.68239730  0.80754423  0.56006202  1.0
  P  P8335  1  0.68239730  0.93254423  0.56006202  1.0
  P  P8336  1  0.79350841  0.05754423  0.56006202  1.0
  P  P8337  1  0.79350841  0.18254423  0.56006202  1.0
  P  P8338  1  0.79350841  0.30754423  0.56006202  1.0
  P  P8339  1  0.79350841  0.43254423  0.56006202  1.0
  P  P8340  1  0.79350841  0.55754423  0.56006202  1.0
  P  P8341  1  0.79350841  0.68254423  0.56006202  1.0
  P  P8342  1  0.79350841  0.80754423  0.56006202  1.0
  P  P8343  1  0.79350841  0.93254423  0.56006202  1.0
  P  P8344  1  0.90461952  0.05754423  0.56006202  1.0
  P  P8345  1  0.90461952  0.18254423  0.56006202  1.0
  P  P8346  1  0.90461952  0.30754423  0.56006202  1.0
  P  P8347  1  0.90461952  0.43254423  0.56006202  1.0
  P  P8348  1  0.90461952  0.55754423  0.56006202  1.0
  P  P8349  1  0.90461952  0.68254423  0.56006202  1.0
  P  P8350  1  0.90461952  0.80754423  0.56006202  1.0
  P  P8351  1  0.90461952  0.93254423  0.56006202  1.0
  P  P8352  1  0.10038672  0.05754423  0.51244298  1.0
  P  P8353  1  0.10038672  0.18254423  0.51244298  1.0
  P  P8354  1  0.10038672  0.30754423  0.51244298  1.0
  P  P8355  1  0.10038672  0.43254423  0.51244298  1.0
  P  P8356  1  0.10038672  0.55754423  0.51244298  1.0
  P  P8357  1  0.10038672  0.68254423  0.51244298  1.0
  P  P8358  1  0.10038672  0.80754423  0.51244298  1.0
  P  P8359  1  0.10038672  0.93254423  0.51244298  1.0
  P  P8360  1  0.21149783  0.05754423  0.51244298  1.0
  P  P8361  1  0.21149783  0.18254423  0.51244298  1.0
  P  P8362  1  0.21149783  0.30754423  0.51244298  1.0
  P  P8363  1  0.21149783  0.43254423  0.51244298  1.0
  P  P8364  1  0.21149783  0.55754423  0.51244298  1.0
  P  P8365  1  0.21149783  0.68254423  0.51244298  1.0
  P  P8366  1  0.21149783  0.80754423  0.51244298  1.0
  P  P8367  1  0.21149783  0.93254423  0.51244298  1.0
  P  P8368  1  0.32260894  0.05754423  0.51244298  1.0
  P  P8369  1  0.32260894  0.18254423  0.51244298  1.0
  P  P8370  1  0.32260894  0.30754423  0.51244298  1.0
  P  P8371  1  0.32260894  0.43254423  0.51244298  1.0
  P  P8372  1  0.32260894  0.55754423  0.51244298  1.0
  P  P8373  1  0.32260894  0.68254423  0.51244298  1.0
  P  P8374  1  0.32260894  0.80754423  0.51244298  1.0
  P  P8375  1  0.32260894  0.93254423  0.51244298  1.0
  P  P8376  1  0.43372005  0.05754423  0.51244298  1.0
  P  P8377  1  0.43372005  0.18254423  0.51244298  1.0
  P  P8378  1  0.43372005  0.30754423  0.51244298  1.0
  P  P8379  1  0.43372005  0.43254423  0.51244298  1.0
  P  P8380  1  0.43372005  0.55754423  0.51244298  1.0
  P  P8381  1  0.43372005  0.68254423  0.51244298  1.0
  P  P8382  1  0.43372005  0.80754423  0.51244298  1.0
  P  P8383  1  0.43372005  0.93254423  0.51244298  1.0
  P  P8384  1  0.54483116  0.05754423  0.51244298  1.0
  P  P8385  1  0.54483116  0.18254423  0.51244298  1.0
  P  P8386  1  0.54483116  0.30754423  0.51244298  1.0
  P  P8387  1  0.54483116  0.43254423  0.51244298  1.0
  P  P8388  1  0.54483116  0.55754423  0.51244298  1.0
  P  P8389  1  0.54483116  0.68254423  0.51244298  1.0
  P  P8390  1  0.54483116  0.80754423  0.51244298  1.0
  P  P8391  1  0.54483116  0.93254423  0.51244298  1.0
  P  P8392  1  0.65594228  0.05754423  0.51244298  1.0
  P  P8393  1  0.65594228  0.18254423  0.51244298  1.0
  P  P8394  1  0.65594228  0.30754423  0.51244298  1.0
  P  P8395  1  0.65594228  0.43254423  0.51244298  1.0
  P  P8396  1  0.65594228  0.55754423  0.51244298  1.0
  P  P8397  1  0.65594228  0.68254423  0.51244298  1.0
  P  P8398  1  0.65594228  0.80754423  0.51244298  1.0
  P  P8399  1  0.65594228  0.93254423  0.51244298  1.0
  P  P8400  1  0.76705339  0.05754423  0.51244298  1.0
  P  P8401  1  0.76705339  0.18254423  0.51244298  1.0
  P  P8402  1  0.76705339  0.30754423  0.51244298  1.0
  P  P8403  1  0.76705339  0.43254423  0.51244298  1.0
  P  P8404  1  0.76705339  0.55754423  0.51244298  1.0
  P  P8405  1  0.76705339  0.68254423  0.51244298  1.0
  P  P8406  1  0.76705339  0.80754423  0.51244298  1.0
  P  P8407  1  0.76705339  0.93254423  0.51244298  1.0
  P  P8408  1  0.87816450  0.05754423  0.51244298  1.0
  P  P8409  1  0.87816450  0.18254423  0.51244298  1.0
  P  P8410  1  0.87816450  0.30754423  0.51244298  1.0
  P  P8411  1  0.87816450  0.43254423  0.51244298  1.0
  P  P8412  1  0.87816450  0.55754423  0.51244298  1.0
  P  P8413  1  0.87816450  0.68254423  0.51244298  1.0
  P  P8414  1  0.87816450  0.80754423  0.51244298  1.0
  P  P8415  1  0.87816450  0.93254423  0.51244298  1.0
  P  P8416  1  0.98927561  0.05754423  0.51244298  1.0
  P  P8417  1  0.98927561  0.18254423  0.51244298  1.0
  P  P8418  1  0.98927561  0.30754423  0.51244298  1.0
  P  P8419  1  0.98927561  0.43254423  0.51244298  1.0
  P  P8420  1  0.98927561  0.55754423  0.51244298  1.0
  P  P8421  1  0.98927561  0.68254423  0.51244298  1.0
  P  P8422  1  0.98927561  0.80754423  0.51244298  1.0
  P  P8423  1  0.98927561  0.93254423  0.51244298  1.0
  P  P8424  1  0.04218566  0.05754423  0.60768107  1.0
  P  P8425  1  0.04218566  0.18254423  0.60768107  1.0
  P  P8426  1  0.04218566  0.30754423  0.60768107  1.0
  P  P8427  1  0.04218566  0.43254423  0.60768107  1.0
  P  P8428  1  0.04218566  0.55754423  0.60768107  1.0
  P  P8429  1  0.04218566  0.68254423  0.60768107  1.0
  P  P8430  1  0.04218566  0.80754423  0.60768107  1.0
  P  P8431  1  0.04218566  0.93254423  0.60768107  1.0
  P  P8432  1  0.15329677  0.05754423  0.60768107  1.0
  P  P8433  1  0.15329677  0.18254423  0.60768107  1.0
  P  P8434  1  0.15329677  0.30754423  0.60768107  1.0
  P  P8435  1  0.15329677  0.43254423  0.60768107  1.0
  P  P8436  1  0.15329677  0.55754423  0.60768107  1.0
  P  P8437  1  0.15329677  0.68254423  0.60768107  1.0
  P  P8438  1  0.15329677  0.80754423  0.60768107  1.0
  P  P8439  1  0.15329677  0.93254423  0.60768107  1.0
  P  P8440  1  0.26440788  0.05754423  0.60768107  1.0
  P  P8441  1  0.26440788  0.18254423  0.60768107  1.0
  P  P8442  1  0.26440788  0.30754423  0.60768107  1.0
  P  P8443  1  0.26440788  0.43254423  0.60768107  1.0
  P  P8444  1  0.26440788  0.55754423  0.60768107  1.0
  P  P8445  1  0.26440788  0.68254423  0.60768107  1.0
  P  P8446  1  0.26440788  0.80754423  0.60768107  1.0
  P  P8447  1  0.26440788  0.93254423  0.60768107  1.0
  P  P8448  1  0.37551900  0.05754423  0.60768107  1.0
  P  P8449  1  0.37551900  0.18254423  0.60768107  1.0
  P  P8450  1  0.37551900  0.30754423  0.60768107  1.0
  P  P8451  1  0.37551900  0.43254423  0.60768107  1.0
  P  P8452  1  0.37551900  0.55754423  0.60768107  1.0
  P  P8453  1  0.37551900  0.68254423  0.60768107  1.0
  P  P8454  1  0.37551900  0.80754423  0.60768107  1.0
  P  P8455  1  0.37551900  0.93254423  0.60768107  1.0
  P  P8456  1  0.48663011  0.05754423  0.60768107  1.0
  P  P8457  1  0.48663011  0.18254423  0.60768107  1.0
  P  P8458  1  0.48663011  0.30754423  0.60768107  1.0
  P  P8459  1  0.48663011  0.43254423  0.60768107  1.0
  P  P8460  1  0.48663011  0.55754423  0.60768107  1.0
  P  P8461  1  0.48663011  0.68254423  0.60768107  1.0
  P  P8462  1  0.48663011  0.80754423  0.60768107  1.0
  P  P8463  1  0.48663011  0.93254423  0.60768107  1.0
  P  P8464  1  0.59774122  0.05754423  0.60768107  1.0
  P  P8465  1  0.59774122  0.18254423  0.60768107  1.0
  P  P8466  1  0.59774122  0.30754423  0.60768107  1.0
  P  P8467  1  0.59774122  0.43254423  0.60768107  1.0
  P  P8468  1  0.59774122  0.55754423  0.60768107  1.0
  P  P8469  1  0.59774122  0.68254423  0.60768107  1.0
  P  P8470  1  0.59774122  0.80754423  0.60768107  1.0
  P  P8471  1  0.59774122  0.93254423  0.60768107  1.0
  P  P8472  1  0.70885233  0.05754423  0.60768107  1.0
  P  P8473  1  0.70885233  0.18254423  0.60768107  1.0
  P  P8474  1  0.70885233  0.30754423  0.60768107  1.0
  P  P8475  1  0.70885233  0.43254423  0.60768107  1.0
  P  P8476  1  0.70885233  0.55754423  0.60768107  1.0
  P  P8477  1  0.70885233  0.68254423  0.60768107  1.0
  P  P8478  1  0.70885233  0.80754423  0.60768107  1.0
  P  P8479  1  0.70885233  0.93254423  0.60768107  1.0
  P  P8480  1  0.81996344  0.05754423  0.60768107  1.0
  P  P8481  1  0.81996344  0.18254423  0.60768107  1.0
  P  P8482  1  0.81996344  0.30754423  0.60768107  1.0
  P  P8483  1  0.81996344  0.43254423  0.60768107  1.0
  P  P8484  1  0.81996344  0.55754423  0.60768107  1.0
  P  P8485  1  0.81996344  0.68254423  0.60768107  1.0
  P  P8486  1  0.81996344  0.80754423  0.60768107  1.0
  P  P8487  1  0.81996344  0.93254423  0.60768107  1.0
  P  P8488  1  0.93107455  0.05754423  0.60768107  1.0
  P  P8489  1  0.93107455  0.18254423  0.60768107  1.0
  P  P8490  1  0.93107455  0.30754423  0.60768107  1.0
  P  P8491  1  0.93107455  0.43254423  0.60768107  1.0
  P  P8492  1  0.93107455  0.55754423  0.60768107  1.0
  P  P8493  1  0.93107455  0.68254423  0.60768107  1.0
  P  P8494  1  0.93107455  0.80754423  0.60768107  1.0
  P  P8495  1  0.93107455  0.93254423  0.60768107  1.0
  P  P8496  1  0.09783768  0.10787809  0.70137681  1.0
  P  P8497  1  0.09783768  0.23287809  0.70137681  1.0
  P  P8498  1  0.09783768  0.35787809  0.70137681  1.0
  P  P8499  1  0.09783768  0.48287809  0.70137681  1.0
  P  P8500  1  0.09783768  0.60787809  0.70137681  1.0
  P  P8501  1  0.09783768  0.73287809  0.70137681  1.0
  P  P8502  1  0.09783768  0.85787809  0.70137681  1.0
  P  P8503  1  0.09783768  0.98287809  0.70137681  1.0
  P  P8504  1  0.20894879  0.10787809  0.70137681  1.0
  P  P8505  1  0.20894879  0.23287809  0.70137681  1.0
  P  P8506  1  0.20894879  0.35787809  0.70137681  1.0
  P  P8507  1  0.20894879  0.48287809  0.70137681  1.0
  P  P8508  1  0.20894879  0.60787809  0.70137681  1.0
  P  P8509  1  0.20894879  0.73287809  0.70137681  1.0
  P  P8510  1  0.20894879  0.85787809  0.70137681  1.0
  P  P8511  1  0.20894879  0.98287809  0.70137681  1.0
  P  P8512  1  0.32005990  0.10787809  0.70137681  1.0
  P  P8513  1  0.32005990  0.23287809  0.70137681  1.0
  P  P8514  1  0.32005990  0.35787809  0.70137681  1.0
  P  P8515  1  0.32005990  0.48287809  0.70137681  1.0
  P  P8516  1  0.32005990  0.60787809  0.70137681  1.0
  P  P8517  1  0.32005990  0.73287809  0.70137681  1.0
  P  P8518  1  0.32005990  0.85787809  0.70137681  1.0
  P  P8519  1  0.32005990  0.98287809  0.70137681  1.0
  P  P8520  1  0.43117101  0.10787809  0.70137681  1.0
  P  P8521  1  0.43117101  0.23287809  0.70137681  1.0
  P  P8522  1  0.43117101  0.35787809  0.70137681  1.0
  P  P8523  1  0.43117101  0.48287809  0.70137681  1.0
  P  P8524  1  0.43117101  0.60787809  0.70137681  1.0
  P  P8525  1  0.43117101  0.73287809  0.70137681  1.0
  P  P8526  1  0.43117101  0.85787809  0.70137681  1.0
  P  P8527  1  0.43117101  0.98287809  0.70137681  1.0
  P  P8528  1  0.54228212  0.10787809  0.70137681  1.0
  P  P8529  1  0.54228212  0.23287809  0.70137681  1.0
  P  P8530  1  0.54228212  0.35787809  0.70137681  1.0
  P  P8531  1  0.54228212  0.48287809  0.70137681  1.0
  P  P8532  1  0.54228212  0.60787809  0.70137681  1.0
  P  P8533  1  0.54228212  0.73287809  0.70137681  1.0
  P  P8534  1  0.54228212  0.85787809  0.70137681  1.0
  P  P8535  1  0.54228212  0.98287809  0.70137681  1.0
  P  P8536  1  0.65339323  0.10787809  0.70137681  1.0
  P  P8537  1  0.65339323  0.23287809  0.70137681  1.0
  P  P8538  1  0.65339323  0.35787809  0.70137681  1.0
  P  P8539  1  0.65339323  0.48287809  0.70137681  1.0
  P  P8540  1  0.65339323  0.60787809  0.70137681  1.0
  P  P8541  1  0.65339323  0.73287809  0.70137681  1.0
  P  P8542  1  0.65339323  0.85787809  0.70137681  1.0
  P  P8543  1  0.65339323  0.98287809  0.70137681  1.0
  P  P8544  1  0.76450435  0.10787809  0.70137681  1.0
  P  P8545  1  0.76450435  0.23287809  0.70137681  1.0
  P  P8546  1  0.76450435  0.35787809  0.70137681  1.0
  P  P8547  1  0.76450435  0.48287809  0.70137681  1.0
  P  P8548  1  0.76450435  0.60787809  0.70137681  1.0
  P  P8549  1  0.76450435  0.73287809  0.70137681  1.0
  P  P8550  1  0.76450435  0.85787809  0.70137681  1.0
  P  P8551  1  0.76450435  0.98287809  0.70137681  1.0
  P  P8552  1  0.87561546  0.10787809  0.70137681  1.0
  P  P8553  1  0.87561546  0.23287809  0.70137681  1.0
  P  P8554  1  0.87561546  0.35787809  0.70137681  1.0
  P  P8555  1  0.87561546  0.48287809  0.70137681  1.0
  P  P8556  1  0.87561546  0.60787809  0.70137681  1.0
  P  P8557  1  0.87561546  0.73287809  0.70137681  1.0
  P  P8558  1  0.87561546  0.85787809  0.70137681  1.0
  P  P8559  1  0.87561546  0.98287809  0.70137681  1.0
  P  P8560  1  0.98672657  0.10787809  0.70137681  1.0
  P  P8561  1  0.98672657  0.23287809  0.70137681  1.0
  P  P8562  1  0.98672657  0.35787809  0.70137681  1.0
  P  P8563  1  0.98672657  0.48287809  0.70137681  1.0
  P  P8564  1  0.98672657  0.60787809  0.70137681  1.0
  P  P8565  1  0.98672657  0.73287809  0.70137681  1.0
  P  P8566  1  0.98672657  0.85787809  0.70137681  1.0
  P  P8567  1  0.98672657  0.98287809  0.70137681  1.0
  P  P8568  1  0.07138265  0.10787809  0.65375776  1.0
  P  P8569  1  0.07138265  0.23287809  0.65375776  1.0
  P  P8570  1  0.07138265  0.35787809  0.65375776  1.0
  P  P8571  1  0.07138265  0.48287809  0.65375776  1.0
  P  P8572  1  0.07138265  0.60787809  0.65375776  1.0
  P  P8573  1  0.07138265  0.73287809  0.65375776  1.0
  P  P8574  1  0.07138265  0.85787809  0.65375776  1.0
  P  P8575  1  0.07138265  0.98287809  0.65375776  1.0
  P  P8576  1  0.18249376  0.10787809  0.65375776  1.0
  P  P8577  1  0.18249376  0.23287809  0.65375776  1.0
  P  P8578  1  0.18249376  0.35787809  0.65375776  1.0
  P  P8579  1  0.18249376  0.48287809  0.65375776  1.0
  P  P8580  1  0.18249376  0.60787809  0.65375776  1.0
  P  P8581  1  0.18249376  0.73287809  0.65375776  1.0
  P  P8582  1  0.18249376  0.85787809  0.65375776  1.0
  P  P8583  1  0.18249376  0.98287809  0.65375776  1.0
  P  P8584  1  0.29360487  0.10787809  0.65375776  1.0
  P  P8585  1  0.29360487  0.23287809  0.65375776  1.0
  P  P8586  1  0.29360487  0.35787809  0.65375776  1.0
  P  P8587  1  0.29360487  0.48287809  0.65375776  1.0
  P  P8588  1  0.29360487  0.60787809  0.65375776  1.0
  P  P8589  1  0.29360487  0.73287809  0.65375776  1.0
  P  P8590  1  0.29360487  0.85787809  0.65375776  1.0
  P  P8591  1  0.29360487  0.98287809  0.65375776  1.0
  P  P8592  1  0.40471599  0.10787809  0.65375776  1.0
  P  P8593  1  0.40471599  0.23287809  0.65375776  1.0
  P  P8594  1  0.40471599  0.35787809  0.65375776  1.0
  P  P8595  1  0.40471599  0.48287809  0.65375776  1.0
  P  P8596  1  0.40471599  0.60787809  0.65375776  1.0
  P  P8597  1  0.40471599  0.73287809  0.65375776  1.0
  P  P8598  1  0.40471599  0.85787809  0.65375776  1.0
  P  P8599  1  0.40471599  0.98287809  0.65375776  1.0
  P  P8600  1  0.51582710  0.10787809  0.65375776  1.0
  P  P8601  1  0.51582710  0.23287809  0.65375776  1.0
  P  P8602  1  0.51582710  0.35787809  0.65375776  1.0
  P  P8603  1  0.51582710  0.48287809  0.65375776  1.0
  P  P8604  1  0.51582710  0.60787809  0.65375776  1.0
  P  P8605  1  0.51582710  0.73287809  0.65375776  1.0
  P  P8606  1  0.51582710  0.85787809  0.65375776  1.0
  P  P8607  1  0.51582710  0.98287809  0.65375776  1.0
  P  P8608  1  0.62693821  0.10787809  0.65375776  1.0
  P  P8609  1  0.62693821  0.23287809  0.65375776  1.0
  P  P8610  1  0.62693821  0.35787809  0.65375776  1.0
  P  P8611  1  0.62693821  0.48287809  0.65375776  1.0
  P  P8612  1  0.62693821  0.60787809  0.65375776  1.0
  P  P8613  1  0.62693821  0.73287809  0.65375776  1.0
  P  P8614  1  0.62693821  0.85787809  0.65375776  1.0
  P  P8615  1  0.62693821  0.98287809  0.65375776  1.0
  P  P8616  1  0.73804932  0.10787809  0.65375776  1.0
  P  P8617  1  0.73804932  0.23287809  0.65375776  1.0
  P  P8618  1  0.73804932  0.35787809  0.65375776  1.0
  P  P8619  1  0.73804932  0.48287809  0.65375776  1.0
  P  P8620  1  0.73804932  0.60787809  0.65375776  1.0
  P  P8621  1  0.73804932  0.73287809  0.65375776  1.0
  P  P8622  1  0.73804932  0.85787809  0.65375776  1.0
  P  P8623  1  0.73804932  0.98287809  0.65375776  1.0
  P  P8624  1  0.84916043  0.10787809  0.65375776  1.0
  P  P8625  1  0.84916043  0.23287809  0.65375776  1.0
  P  P8626  1  0.84916043  0.35787809  0.65375776  1.0
  P  P8627  1  0.84916043  0.48287809  0.65375776  1.0
  P  P8628  1  0.84916043  0.60787809  0.65375776  1.0
  P  P8629  1  0.84916043  0.73287809  0.65375776  1.0
  P  P8630  1  0.84916043  0.85787809  0.65375776  1.0
  P  P8631  1  0.84916043  0.98287809  0.65375776  1.0
  P  P8632  1  0.96027154  0.10787809  0.65375776  1.0
  P  P8633  1  0.96027154  0.23287809  0.65375776  1.0
  P  P8634  1  0.96027154  0.35787809  0.65375776  1.0
  P  P8635  1  0.96027154  0.48287809  0.65375776  1.0
  P  P8636  1  0.96027154  0.60787809  0.65375776  1.0
  P  P8637  1  0.96027154  0.73287809  0.65375776  1.0
  P  P8638  1  0.96027154  0.85787809  0.65375776  1.0
  P  P8639  1  0.96027154  0.98287809  0.65375776  1.0
  P  P8640  1  0.01318159  0.10787809  0.74899586  1.0
  P  P8641  1  0.01318159  0.23287809  0.74899586  1.0
  P  P8642  1  0.01318159  0.35787809  0.74899586  1.0
  P  P8643  1  0.01318159  0.48287809  0.74899586  1.0
  P  P8644  1  0.01318159  0.60787809  0.74899586  1.0
  P  P8645  1  0.01318159  0.73287809  0.74899586  1.0
  P  P8646  1  0.01318159  0.85787809  0.74899586  1.0
  P  P8647  1  0.01318159  0.98287809  0.74899586  1.0
  P  P8648  1  0.12429271  0.10787809  0.74899586  1.0
  P  P8649  1  0.12429271  0.23287809  0.74899586  1.0
  P  P8650  1  0.12429271  0.35787809  0.74899586  1.0
  P  P8651  1  0.12429271  0.48287809  0.74899586  1.0
  P  P8652  1  0.12429271  0.60787809  0.74899586  1.0
  P  P8653  1  0.12429271  0.73287809  0.74899586  1.0
  P  P8654  1  0.12429271  0.85787809  0.74899586  1.0
  P  P8655  1  0.12429271  0.98287809  0.74899586  1.0
  P  P8656  1  0.23540382  0.10787809  0.74899586  1.0
  P  P8657  1  0.23540382  0.23287809  0.74899586  1.0
  P  P8658  1  0.23540382  0.35787809  0.74899586  1.0
  P  P8659  1  0.23540382  0.48287809  0.74899586  1.0
  P  P8660  1  0.23540382  0.60787809  0.74899586  1.0
  P  P8661  1  0.23540382  0.73287809  0.74899586  1.0
  P  P8662  1  0.23540382  0.85787809  0.74899586  1.0
  P  P8663  1  0.23540382  0.98287809  0.74899586  1.0
  P  P8664  1  0.34651493  0.10787809  0.74899586  1.0
  P  P8665  1  0.34651493  0.23287809  0.74899586  1.0
  P  P8666  1  0.34651493  0.35787809  0.74899586  1.0
  P  P8667  1  0.34651493  0.48287809  0.74899586  1.0
  P  P8668  1  0.34651493  0.60787809  0.74899586  1.0
  P  P8669  1  0.34651493  0.73287809  0.74899586  1.0
  P  P8670  1  0.34651493  0.85787809  0.74899586  1.0
  P  P8671  1  0.34651493  0.98287809  0.74899586  1.0
  P  P8672  1  0.45762604  0.10787809  0.74899586  1.0
  P  P8673  1  0.45762604  0.23287809  0.74899586  1.0
  P  P8674  1  0.45762604  0.35787809  0.74899586  1.0
  P  P8675  1  0.45762604  0.48287809  0.74899586  1.0
  P  P8676  1  0.45762604  0.60787809  0.74899586  1.0
  P  P8677  1  0.45762604  0.73287809  0.74899586  1.0
  P  P8678  1  0.45762604  0.85787809  0.74899586  1.0
  P  P8679  1  0.45762604  0.98287809  0.74899586  1.0
  P  P8680  1  0.56873715  0.10787809  0.74899586  1.0
  P  P8681  1  0.56873715  0.23287809  0.74899586  1.0
  P  P8682  1  0.56873715  0.35787809  0.74899586  1.0
  P  P8683  1  0.56873715  0.48287809  0.74899586  1.0
  P  P8684  1  0.56873715  0.60787809  0.74899586  1.0
  P  P8685  1  0.56873715  0.73287809  0.74899586  1.0
  P  P8686  1  0.56873715  0.85787809  0.74899586  1.0
  P  P8687  1  0.56873715  0.98287809  0.74899586  1.0
  P  P8688  1  0.67984826  0.10787809  0.74899586  1.0
  P  P8689  1  0.67984826  0.23287809  0.74899586  1.0
  P  P8690  1  0.67984826  0.35787809  0.74899586  1.0
  P  P8691  1  0.67984826  0.48287809  0.74899586  1.0
  P  P8692  1  0.67984826  0.60787809  0.74899586  1.0
  P  P8693  1  0.67984826  0.73287809  0.74899586  1.0
  P  P8694  1  0.67984826  0.85787809  0.74899586  1.0
  P  P8695  1  0.67984826  0.98287809  0.74899586  1.0
  P  P8696  1  0.79095937  0.10787809  0.74899586  1.0
  P  P8697  1  0.79095937  0.23287809  0.74899586  1.0
  P  P8698  1  0.79095937  0.35787809  0.74899586  1.0
  P  P8699  1  0.79095937  0.48287809  0.74899586  1.0
  P  P8700  1  0.79095937  0.60787809  0.74899586  1.0
  P  P8701  1  0.79095937  0.73287809  0.74899586  1.0
  P  P8702  1  0.79095937  0.85787809  0.74899586  1.0
  P  P8703  1  0.79095937  0.98287809  0.74899586  1.0
  P  P8704  1  0.90207048  0.10787809  0.74899586  1.0
  P  P8705  1  0.90207048  0.23287809  0.74899586  1.0
  P  P8706  1  0.90207048  0.35787809  0.74899586  1.0
  P  P8707  1  0.90207048  0.48287809  0.74899586  1.0
  P  P8708  1  0.90207048  0.60787809  0.74899586  1.0
  P  P8709  1  0.90207048  0.73287809  0.74899586  1.0
  P  P8710  1  0.90207048  0.85787809  0.74899586  1.0
  P  P8711  1  0.90207048  0.98287809  0.74899586  1.0
  P  P8712  1  0.09949024  0.01712191  0.66919725  1.0
  P  P8713  1  0.09949024  0.14212191  0.66919725  1.0
  P  P8714  1  0.09949024  0.26712191  0.66919725  1.0
  P  P8715  1  0.09949024  0.39212191  0.66919725  1.0
  P  P8716  1  0.09949024  0.51712191  0.66919725  1.0
  P  P8717  1  0.09949024  0.64212191  0.66919725  1.0
  P  P8718  1  0.09949024  0.76712191  0.66919725  1.0
  P  P8719  1  0.09949024  0.89212191  0.66919725  1.0
  P  P8720  1  0.21060135  0.01712191  0.66919725  1.0
  P  P8721  1  0.21060135  0.14212191  0.66919725  1.0
  P  P8722  1  0.21060135  0.26712191  0.66919725  1.0
  P  P8723  1  0.21060135  0.39212191  0.66919725  1.0
  P  P8724  1  0.21060135  0.51712191  0.66919725  1.0
  P  P8725  1  0.21060135  0.64212191  0.66919725  1.0
  P  P8726  1  0.21060135  0.76712191  0.66919725  1.0
  P  P8727  1  0.21060135  0.89212191  0.66919725  1.0
  P  P8728  1  0.32171246  0.01712191  0.66919725  1.0
  P  P8729  1  0.32171246  0.14212191  0.66919725  1.0
  P  P8730  1  0.32171246  0.26712191  0.66919725  1.0
  P  P8731  1  0.32171246  0.39212191  0.66919725  1.0
  P  P8732  1  0.32171246  0.51712191  0.66919725  1.0
  P  P8733  1  0.32171246  0.64212191  0.66919725  1.0
  P  P8734  1  0.32171246  0.76712191  0.66919725  1.0
  P  P8735  1  0.32171246  0.89212191  0.66919725  1.0
  P  P8736  1  0.43282357  0.01712191  0.66919725  1.0
  P  P8737  1  0.43282357  0.14212191  0.66919725  1.0
  P  P8738  1  0.43282357  0.26712191  0.66919725  1.0
  P  P8739  1  0.43282357  0.39212191  0.66919725  1.0
  P  P8740  1  0.43282357  0.51712191  0.66919725  1.0
  P  P8741  1  0.43282357  0.64212191  0.66919725  1.0
  P  P8742  1  0.43282357  0.76712191  0.66919725  1.0
  P  P8743  1  0.43282357  0.89212191  0.66919725  1.0
  P  P8744  1  0.54393468  0.01712191  0.66919725  1.0
  P  P8745  1  0.54393468  0.14212191  0.66919725  1.0
  P  P8746  1  0.54393468  0.26712191  0.66919725  1.0
  P  P8747  1  0.54393468  0.39212191  0.66919725  1.0
  P  P8748  1  0.54393468  0.51712191  0.66919725  1.0
  P  P8749  1  0.54393468  0.64212191  0.66919725  1.0
  P  P8750  1  0.54393468  0.76712191  0.66919725  1.0
  P  P8751  1  0.54393468  0.89212191  0.66919725  1.0
  P  P8752  1  0.65504580  0.01712191  0.66919725  1.0
  P  P8753  1  0.65504580  0.14212191  0.66919725  1.0
  P  P8754  1  0.65504580  0.26712191  0.66919725  1.0
  P  P8755  1  0.65504580  0.39212191  0.66919725  1.0
  P  P8756  1  0.65504580  0.51712191  0.66919725  1.0
  P  P8757  1  0.65504580  0.64212191  0.66919725  1.0
  P  P8758  1  0.65504580  0.76712191  0.66919725  1.0
  P  P8759  1  0.65504580  0.89212191  0.66919725  1.0
  P  P8760  1  0.76615691  0.01712191  0.66919725  1.0
  P  P8761  1  0.76615691  0.14212191  0.66919725  1.0
  P  P8762  1  0.76615691  0.26712191  0.66919725  1.0
  P  P8763  1  0.76615691  0.39212191  0.66919725  1.0
  P  P8764  1  0.76615691  0.51712191  0.66919725  1.0
  P  P8765  1  0.76615691  0.64212191  0.66919725  1.0
  P  P8766  1  0.76615691  0.76712191  0.66919725  1.0
  P  P8767  1  0.76615691  0.89212191  0.66919725  1.0
  P  P8768  1  0.87726802  0.01712191  0.66919725  1.0
  P  P8769  1  0.87726802  0.14212191  0.66919725  1.0
  P  P8770  1  0.87726802  0.26712191  0.66919725  1.0
  P  P8771  1  0.87726802  0.39212191  0.66919725  1.0
  P  P8772  1  0.87726802  0.51712191  0.66919725  1.0
  P  P8773  1  0.87726802  0.64212191  0.66919725  1.0
  P  P8774  1  0.87726802  0.76712191  0.66919725  1.0
  P  P8775  1  0.87726802  0.89212191  0.66919725  1.0
  P  P8776  1  0.98837913  0.01712191  0.66919725  1.0
  P  P8777  1  0.98837913  0.14212191  0.66919725  1.0
  P  P8778  1  0.98837913  0.26712191  0.66919725  1.0
  P  P8779  1  0.98837913  0.39212191  0.66919725  1.0
  P  P8780  1  0.98837913  0.51712191  0.66919725  1.0
  P  P8781  1  0.98837913  0.64212191  0.66919725  1.0
  P  P8782  1  0.98837913  0.76712191  0.66919725  1.0
  P  P8783  1  0.98837913  0.89212191  0.66919725  1.0
  P  P8784  1  0.04128918  0.01712191  0.76443534  1.0
  P  P8785  1  0.04128918  0.14212191  0.76443534  1.0
  P  P8786  1  0.04128918  0.26712191  0.76443534  1.0
  P  P8787  1  0.04128918  0.39212191  0.76443534  1.0
  P  P8788  1  0.04128918  0.51712191  0.76443534  1.0
  P  P8789  1  0.04128918  0.64212191  0.76443534  1.0
  P  P8790  1  0.04128918  0.76712191  0.76443534  1.0
  P  P8791  1  0.04128918  0.89212191  0.76443534  1.0
  P  P8792  1  0.15240029  0.01712191  0.76443534  1.0
  P  P8793  1  0.15240029  0.14212191  0.76443534  1.0
  P  P8794  1  0.15240029  0.26712191  0.76443534  1.0
  P  P8795  1  0.15240029  0.39212191  0.76443534  1.0
  P  P8796  1  0.15240029  0.51712191  0.76443534  1.0
  P  P8797  1  0.15240029  0.64212191  0.76443534  1.0
  P  P8798  1  0.15240029  0.76712191  0.76443534  1.0
  P  P8799  1  0.15240029  0.89212191  0.76443534  1.0
  P  P8800  1  0.26351140  0.01712191  0.76443534  1.0
  P  P8801  1  0.26351140  0.14212191  0.76443534  1.0
  P  P8802  1  0.26351140  0.26712191  0.76443534  1.0
  P  P8803  1  0.26351140  0.39212191  0.76443534  1.0
  P  P8804  1  0.26351140  0.51712191  0.76443534  1.0
  P  P8805  1  0.26351140  0.64212191  0.76443534  1.0
  P  P8806  1  0.26351140  0.76712191  0.76443534  1.0
  P  P8807  1  0.26351140  0.89212191  0.76443534  1.0
  P  P8808  1  0.37462252  0.01712191  0.76443534  1.0
  P  P8809  1  0.37462252  0.14212191  0.76443534  1.0
  P  P8810  1  0.37462252  0.26712191  0.76443534  1.0
  P  P8811  1  0.37462252  0.39212191  0.76443534  1.0
  P  P8812  1  0.37462252  0.51712191  0.76443534  1.0
  P  P8813  1  0.37462252  0.64212191  0.76443534  1.0
  P  P8814  1  0.37462252  0.76712191  0.76443534  1.0
  P  P8815  1  0.37462252  0.89212191  0.76443534  1.0
  P  P8816  1  0.48573363  0.01712191  0.76443534  1.0
  P  P8817  1  0.48573363  0.14212191  0.76443534  1.0
  P  P8818  1  0.48573363  0.26712191  0.76443534  1.0
  P  P8819  1  0.48573363  0.39212191  0.76443534  1.0
  P  P8820  1  0.48573363  0.51712191  0.76443534  1.0
  P  P8821  1  0.48573363  0.64212191  0.76443534  1.0
  P  P8822  1  0.48573363  0.76712191  0.76443534  1.0
  P  P8823  1  0.48573363  0.89212191  0.76443534  1.0
  P  P8824  1  0.59684474  0.01712191  0.76443534  1.0
  P  P8825  1  0.59684474  0.14212191  0.76443534  1.0
  P  P8826  1  0.59684474  0.26712191  0.76443534  1.0
  P  P8827  1  0.59684474  0.39212191  0.76443534  1.0
  P  P8828  1  0.59684474  0.51712191  0.76443534  1.0
  P  P8829  1  0.59684474  0.64212191  0.76443534  1.0
  P  P8830  1  0.59684474  0.76712191  0.76443534  1.0
  P  P8831  1  0.59684474  0.89212191  0.76443534  1.0
  P  P8832  1  0.70795585  0.01712191  0.76443534  1.0
  P  P8833  1  0.70795585  0.14212191  0.76443534  1.0
  P  P8834  1  0.70795585  0.26712191  0.76443534  1.0
  P  P8835  1  0.70795585  0.39212191  0.76443534  1.0
  P  P8836  1  0.70795585  0.51712191  0.76443534  1.0
  P  P8837  1  0.70795585  0.64212191  0.76443534  1.0
  P  P8838  1  0.70795585  0.76712191  0.76443534  1.0
  P  P8839  1  0.70795585  0.89212191  0.76443534  1.0
  P  P8840  1  0.81906696  0.01712191  0.76443534  1.0
  P  P8841  1  0.81906696  0.14212191  0.76443534  1.0
  P  P8842  1  0.81906696  0.26712191  0.76443534  1.0
  P  P8843  1  0.81906696  0.39212191  0.76443534  1.0
  P  P8844  1  0.81906696  0.51712191  0.76443534  1.0
  P  P8845  1  0.81906696  0.64212191  0.76443534  1.0
  P  P8846  1  0.81906696  0.76712191  0.76443534  1.0
  P  P8847  1  0.81906696  0.89212191  0.76443534  1.0
  P  P8848  1  0.93017807  0.01712191  0.76443534  1.0
  P  P8849  1  0.93017807  0.14212191  0.76443534  1.0
  P  P8850  1  0.93017807  0.26712191  0.76443534  1.0
  P  P8851  1  0.93017807  0.39212191  0.76443534  1.0
  P  P8852  1  0.93017807  0.51712191  0.76443534  1.0
  P  P8853  1  0.93017807  0.64212191  0.76443534  1.0
  P  P8854  1  0.93017807  0.76712191  0.76443534  1.0
  P  P8855  1  0.93017807  0.89212191  0.76443534  1.0
  P  P8856  1  0.01483416  0.01712191  0.71681629  1.0
  P  P8857  1  0.01483416  0.14212191  0.71681629  1.0
  P  P8858  1  0.01483416  0.26712191  0.71681629  1.0
  P  P8859  1  0.01483416  0.39212191  0.71681629  1.0
  P  P8860  1  0.01483416  0.51712191  0.71681629  1.0
  P  P8861  1  0.01483416  0.64212191  0.71681629  1.0
  P  P8862  1  0.01483416  0.76712191  0.71681629  1.0
  P  P8863  1  0.01483416  0.89212191  0.71681629  1.0
  P  P8864  1  0.12594527  0.01712191  0.71681629  1.0
  P  P8865  1  0.12594527  0.14212191  0.71681629  1.0
  P  P8866  1  0.12594527  0.26712191  0.71681629  1.0
  P  P8867  1  0.12594527  0.39212191  0.71681629  1.0
  P  P8868  1  0.12594527  0.51712191  0.71681629  1.0
  P  P8869  1  0.12594527  0.64212191  0.71681629  1.0
  P  P8870  1  0.12594527  0.76712191  0.71681629  1.0
  P  P8871  1  0.12594527  0.89212191  0.71681629  1.0
  P  P8872  1  0.23705638  0.01712191  0.71681629  1.0
  P  P8873  1  0.23705638  0.14212191  0.71681629  1.0
  P  P8874  1  0.23705638  0.26712191  0.71681629  1.0
  P  P8875  1  0.23705638  0.39212191  0.71681629  1.0
  P  P8876  1  0.23705638  0.51712191  0.71681629  1.0
  P  P8877  1  0.23705638  0.64212191  0.71681629  1.0
  P  P8878  1  0.23705638  0.76712191  0.71681629  1.0
  P  P8879  1  0.23705638  0.89212191  0.71681629  1.0
  P  P8880  1  0.34816749  0.01712191  0.71681629  1.0
  P  P8881  1  0.34816749  0.14212191  0.71681629  1.0
  P  P8882  1  0.34816749  0.26712191  0.71681629  1.0
  P  P8883  1  0.34816749  0.39212191  0.71681629  1.0
  P  P8884  1  0.34816749  0.51712191  0.71681629  1.0
  P  P8885  1  0.34816749  0.64212191  0.71681629  1.0
  P  P8886  1  0.34816749  0.76712191  0.71681629  1.0
  P  P8887  1  0.34816749  0.89212191  0.71681629  1.0
  P  P8888  1  0.45927860  0.01712191  0.71681629  1.0
  P  P8889  1  0.45927860  0.14212191  0.71681629  1.0
  P  P8890  1  0.45927860  0.26712191  0.71681629  1.0
  P  P8891  1  0.45927860  0.39212191  0.71681629  1.0
  P  P8892  1  0.45927860  0.51712191  0.71681629  1.0
  P  P8893  1  0.45927860  0.64212191  0.71681629  1.0
  P  P8894  1  0.45927860  0.76712191  0.71681629  1.0
  P  P8895  1  0.45927860  0.89212191  0.71681629  1.0
  P  P8896  1  0.57038971  0.01712191  0.71681629  1.0
  P  P8897  1  0.57038971  0.14212191  0.71681629  1.0
  P  P8898  1  0.57038971  0.26712191  0.71681629  1.0
  P  P8899  1  0.57038971  0.39212191  0.71681629  1.0
  P  P8900  1  0.57038971  0.51712191  0.71681629  1.0
  P  P8901  1  0.57038971  0.64212191  0.71681629  1.0
  P  P8902  1  0.57038971  0.76712191  0.71681629  1.0
  P  P8903  1  0.57038971  0.89212191  0.71681629  1.0
  P  P8904  1  0.68150082  0.01712191  0.71681629  1.0
  P  P8905  1  0.68150082  0.14212191  0.71681629  1.0
  P  P8906  1  0.68150082  0.26712191  0.71681629  1.0
  P  P8907  1  0.68150082  0.39212191  0.71681629  1.0
  P  P8908  1  0.68150082  0.51712191  0.71681629  1.0
  P  P8909  1  0.68150082  0.64212191  0.71681629  1.0
  P  P8910  1  0.68150082  0.76712191  0.71681629  1.0
  P  P8911  1  0.68150082  0.89212191  0.71681629  1.0
  P  P8912  1  0.79261193  0.01712191  0.71681629  1.0
  P  P8913  1  0.79261193  0.14212191  0.71681629  1.0
  P  P8914  1  0.79261193  0.26712191  0.71681629  1.0
  P  P8915  1  0.79261193  0.39212191  0.71681629  1.0
  P  P8916  1  0.79261193  0.51712191  0.71681629  1.0
  P  P8917  1  0.79261193  0.64212191  0.71681629  1.0
  P  P8918  1  0.79261193  0.76712191  0.71681629  1.0
  P  P8919  1  0.79261193  0.89212191  0.71681629  1.0
  P  P8920  1  0.90372304  0.01712191  0.71681629  1.0
  P  P8921  1  0.90372304  0.14212191  0.71681629  1.0
  P  P8922  1  0.90372304  0.26712191  0.71681629  1.0
  P  P8923  1  0.90372304  0.39212191  0.71681629  1.0
  P  P8924  1  0.90372304  0.51712191  0.71681629  1.0
  P  P8925  1  0.90372304  0.64212191  0.71681629  1.0
  P  P8926  1  0.90372304  0.76712191  0.71681629  1.0
  P  P8927  1  0.90372304  0.89212191  0.71681629  1.0
  P  P8928  1  0.02905461  0.07962191  0.67756729  1.0
  P  P8929  1  0.02905461  0.20462191  0.67756729  1.0
  P  P8930  1  0.02905461  0.32962191  0.67756729  1.0
  P  P8931  1  0.02905461  0.45462191  0.67756729  1.0
  P  P8932  1  0.02905461  0.57962191  0.67756729  1.0
  P  P8933  1  0.02905461  0.70462191  0.67756729  1.0
  P  P8934  1  0.02905461  0.82962191  0.67756729  1.0
  P  P8935  1  0.02905461  0.95462191  0.67756729  1.0
  P  P8936  1  0.14016572  0.07962191  0.67756729  1.0
  P  P8937  1  0.14016572  0.20462191  0.67756729  1.0
  P  P8938  1  0.14016572  0.32962191  0.67756729  1.0
  P  P8939  1  0.14016572  0.45462191  0.67756729  1.0
  P  P8940  1  0.14016572  0.57962191  0.67756729  1.0
  P  P8941  1  0.14016572  0.70462191  0.67756729  1.0
  P  P8942  1  0.14016572  0.82962191  0.67756729  1.0
  P  P8943  1  0.14016572  0.95462191  0.67756729  1.0
  P  P8944  1  0.25127683  0.07962191  0.67756729  1.0
  P  P8945  1  0.25127683  0.20462191  0.67756729  1.0
  P  P8946  1  0.25127683  0.32962191  0.67756729  1.0
  P  P8947  1  0.25127683  0.45462191  0.67756729  1.0
  P  P8948  1  0.25127683  0.57962191  0.67756729  1.0
  P  P8949  1  0.25127683  0.70462191  0.67756729  1.0
  P  P8950  1  0.25127683  0.82962191  0.67756729  1.0
  P  P8951  1  0.25127683  0.95462191  0.67756729  1.0
  P  P8952  1  0.36238794  0.07962191  0.67756729  1.0
  P  P8953  1  0.36238794  0.20462191  0.67756729  1.0
  P  P8954  1  0.36238794  0.32962191  0.67756729  1.0
  P  P8955  1  0.36238794  0.45462191  0.67756729  1.0
  P  P8956  1  0.36238794  0.57962191  0.67756729  1.0
  P  P8957  1  0.36238794  0.70462191  0.67756729  1.0
  P  P8958  1  0.36238794  0.82962191  0.67756729  1.0
  P  P8959  1  0.36238794  0.95462191  0.67756729  1.0
  P  P8960  1  0.47349905  0.07962191  0.67756729  1.0
  P  P8961  1  0.47349905  0.20462191  0.67756729  1.0
  P  P8962  1  0.47349905  0.32962191  0.67756729  1.0
  P  P8963  1  0.47349905  0.45462191  0.67756729  1.0
  P  P8964  1  0.47349905  0.57962191  0.67756729  1.0
  P  P8965  1  0.47349905  0.70462191  0.67756729  1.0
  P  P8966  1  0.47349905  0.82962191  0.67756729  1.0
  P  P8967  1  0.47349905  0.95462191  0.67756729  1.0
  P  P8968  1  0.58461017  0.07962191  0.67756729  1.0
  P  P8969  1  0.58461017  0.20462191  0.67756729  1.0
  P  P8970  1  0.58461017  0.32962191  0.67756729  1.0
  P  P8971  1  0.58461017  0.45462191  0.67756729  1.0
  P  P8972  1  0.58461017  0.57962191  0.67756729  1.0
  P  P8973  1  0.58461017  0.70462191  0.67756729  1.0
  P  P8974  1  0.58461017  0.82962191  0.67756729  1.0
  P  P8975  1  0.58461017  0.95462191  0.67756729  1.0
  P  P8976  1  0.69572128  0.07962191  0.67756729  1.0
  P  P8977  1  0.69572128  0.20462191  0.67756729  1.0
  P  P8978  1  0.69572128  0.32962191  0.67756729  1.0
  P  P8979  1  0.69572128  0.45462191  0.67756729  1.0
  P  P8980  1  0.69572128  0.57962191  0.67756729  1.0
  P  P8981  1  0.69572128  0.70462191  0.67756729  1.0
  P  P8982  1  0.69572128  0.82962191  0.67756729  1.0
  P  P8983  1  0.69572128  0.95462191  0.67756729  1.0
  P  P8984  1  0.80683239  0.07962191  0.67756729  1.0
  P  P8985  1  0.80683239  0.20462191  0.67756729  1.0
  P  P8986  1  0.80683239  0.32962191  0.67756729  1.0
  P  P8987  1  0.80683239  0.45462191  0.67756729  1.0
  P  P8988  1  0.80683239  0.57962191  0.67756729  1.0
  P  P8989  1  0.80683239  0.70462191  0.67756729  1.0
  P  P8990  1  0.80683239  0.82962191  0.67756729  1.0
  P  P8991  1  0.80683239  0.95462191  0.67756729  1.0
  P  P8992  1  0.91794350  0.07962191  0.67756729  1.0
  P  P8993  1  0.91794350  0.20462191  0.67756729  1.0
  P  P8994  1  0.91794350  0.32962191  0.67756729  1.0
  P  P8995  1  0.91794350  0.45462191  0.67756729  1.0
  P  P8996  1  0.91794350  0.57962191  0.67756729  1.0
  P  P8997  1  0.91794350  0.70462191  0.67756729  1.0
  P  P8998  1  0.91794350  0.82962191  0.67756729  1.0
  P  P8999  1  0.91794350  0.95462191  0.67756729  1.0
  P  P9000  1  0.08196466  0.07962191  0.77280538  1.0
  P  P9001  1  0.08196466  0.20462191  0.77280538  1.0
  P  P9002  1  0.08196466  0.32962191  0.77280538  1.0
  P  P9003  1  0.08196466  0.45462191  0.77280538  1.0
  P  P9004  1  0.08196466  0.57962191  0.77280538  1.0
  P  P9005  1  0.08196466  0.70462191  0.77280538  1.0
  P  P9006  1  0.08196466  0.82962191  0.77280538  1.0
  P  P9007  1  0.08196466  0.95462191  0.77280538  1.0
  P  P9008  1  0.19307577  0.07962191  0.77280538  1.0
  P  P9009  1  0.19307577  0.20462191  0.77280538  1.0
  P  P9010  1  0.19307577  0.32962191  0.77280538  1.0
  P  P9011  1  0.19307577  0.45462191  0.77280538  1.0
  P  P9012  1  0.19307577  0.57962191  0.77280538  1.0
  P  P9013  1  0.19307577  0.70462191  0.77280538  1.0
  P  P9014  1  0.19307577  0.82962191  0.77280538  1.0
  P  P9015  1  0.19307577  0.95462191  0.77280538  1.0
  P  P9016  1  0.30418689  0.07962191  0.77280538  1.0
  P  P9017  1  0.30418689  0.20462191  0.77280538  1.0
  P  P9018  1  0.30418689  0.32962191  0.77280538  1.0
  P  P9019  1  0.30418689  0.45462191  0.77280538  1.0
  P  P9020  1  0.30418689  0.57962191  0.77280538  1.0
  P  P9021  1  0.30418689  0.70462191  0.77280538  1.0
  P  P9022  1  0.30418689  0.82962191  0.77280538  1.0
  P  P9023  1  0.30418689  0.95462191  0.77280538  1.0
  P  P9024  1  0.41529800  0.07962191  0.77280538  1.0
  P  P9025  1  0.41529800  0.20462191  0.77280538  1.0
  P  P9026  1  0.41529800  0.32962191  0.77280538  1.0
  P  P9027  1  0.41529800  0.45462191  0.77280538  1.0
  P  P9028  1  0.41529800  0.57962191  0.77280538  1.0
  P  P9029  1  0.41529800  0.70462191  0.77280538  1.0
  P  P9030  1  0.41529800  0.82962191  0.77280538  1.0
  P  P9031  1  0.41529800  0.95462191  0.77280538  1.0
  P  P9032  1  0.52640911  0.07962191  0.77280538  1.0
  P  P9033  1  0.52640911  0.20462191  0.77280538  1.0
  P  P9034  1  0.52640911  0.32962191  0.77280538  1.0
  P  P9035  1  0.52640911  0.45462191  0.77280538  1.0
  P  P9036  1  0.52640911  0.57962191  0.77280538  1.0
  P  P9037  1  0.52640911  0.70462191  0.77280538  1.0
  P  P9038  1  0.52640911  0.82962191  0.77280538  1.0
  P  P9039  1  0.52640911  0.95462191  0.77280538  1.0
  P  P9040  1  0.63752022  0.07962191  0.77280538  1.0
  P  P9041  1  0.63752022  0.20462191  0.77280538  1.0
  P  P9042  1  0.63752022  0.32962191  0.77280538  1.0
  P  P9043  1  0.63752022  0.45462191  0.77280538  1.0
  P  P9044  1  0.63752022  0.57962191  0.77280538  1.0
  P  P9045  1  0.63752022  0.70462191  0.77280538  1.0
  P  P9046  1  0.63752022  0.82962191  0.77280538  1.0
  P  P9047  1  0.63752022  0.95462191  0.77280538  1.0
  P  P9048  1  0.74863133  0.07962191  0.77280538  1.0
  P  P9049  1  0.74863133  0.20462191  0.77280538  1.0
  P  P9050  1  0.74863133  0.32962191  0.77280538  1.0
  P  P9051  1  0.74863133  0.45462191  0.77280538  1.0
  P  P9052  1  0.74863133  0.57962191  0.77280538  1.0
  P  P9053  1  0.74863133  0.70462191  0.77280538  1.0
  P  P9054  1  0.74863133  0.82962191  0.77280538  1.0
  P  P9055  1  0.74863133  0.95462191  0.77280538  1.0
  P  P9056  1  0.85974244  0.07962191  0.77280538  1.0
  P  P9057  1  0.85974244  0.20462191  0.77280538  1.0
  P  P9058  1  0.85974244  0.32962191  0.77280538  1.0
  P  P9059  1  0.85974244  0.45462191  0.77280538  1.0
  P  P9060  1  0.85974244  0.57962191  0.77280538  1.0
  P  P9061  1  0.85974244  0.70462191  0.77280538  1.0
  P  P9062  1  0.85974244  0.82962191  0.77280538  1.0
  P  P9063  1  0.85974244  0.95462191  0.77280538  1.0
  P  P9064  1  0.97085355  0.07962191  0.77280538  1.0
  P  P9065  1  0.97085355  0.20462191  0.77280538  1.0
  P  P9066  1  0.97085355  0.32962191  0.77280538  1.0
  P  P9067  1  0.97085355  0.45462191  0.77280538  1.0
  P  P9068  1  0.97085355  0.57962191  0.77280538  1.0
  P  P9069  1  0.97085355  0.70462191  0.77280538  1.0
  P  P9070  1  0.97085355  0.82962191  0.77280538  1.0
  P  P9071  1  0.97085355  0.95462191  0.77280538  1.0
  P  P9072  1  0.05550964  0.07962191  0.72518634  1.0
  P  P9073  1  0.05550964  0.20462191  0.72518634  1.0
  P  P9074  1  0.05550964  0.32962191  0.72518634  1.0
  P  P9075  1  0.05550964  0.45462191  0.72518634  1.0
  P  P9076  1  0.05550964  0.57962191  0.72518634  1.0
  P  P9077  1  0.05550964  0.70462191  0.72518634  1.0
  P  P9078  1  0.05550964  0.82962191  0.72518634  1.0
  P  P9079  1  0.05550964  0.95462191  0.72518634  1.0
  P  P9080  1  0.16662075  0.07962191  0.72518634  1.0
  P  P9081  1  0.16662075  0.20462191  0.72518634  1.0
  P  P9082  1  0.16662075  0.32962191  0.72518634  1.0
  P  P9083  1  0.16662075  0.45462191  0.72518634  1.0
  P  P9084  1  0.16662075  0.57962191  0.72518634  1.0
  P  P9085  1  0.16662075  0.70462191  0.72518634  1.0
  P  P9086  1  0.16662075  0.82962191  0.72518634  1.0
  P  P9087  1  0.16662075  0.95462191  0.72518634  1.0
  P  P9088  1  0.27773186  0.07962191  0.72518634  1.0
  P  P9089  1  0.27773186  0.20462191  0.72518634  1.0
  P  P9090  1  0.27773186  0.32962191  0.72518634  1.0
  P  P9091  1  0.27773186  0.45462191  0.72518634  1.0
  P  P9092  1  0.27773186  0.57962191  0.72518634  1.0
  P  P9093  1  0.27773186  0.70462191  0.72518634  1.0
  P  P9094  1  0.27773186  0.82962191  0.72518634  1.0
  P  P9095  1  0.27773186  0.95462191  0.72518634  1.0
  P  P9096  1  0.38884297  0.07962191  0.72518634  1.0
  P  P9097  1  0.38884297  0.20462191  0.72518634  1.0
  P  P9098  1  0.38884297  0.32962191  0.72518634  1.0
  P  P9099  1  0.38884297  0.45462191  0.72518634  1.0
  P  P9100  1  0.38884297  0.57962191  0.72518634  1.0
  P  P9101  1  0.38884297  0.70462191  0.72518634  1.0
  P  P9102  1  0.38884297  0.82962191  0.72518634  1.0
  P  P9103  1  0.38884297  0.95462191  0.72518634  1.0
  P  P9104  1  0.49995408  0.07962191  0.72518634  1.0
  P  P9105  1  0.49995408  0.20462191  0.72518634  1.0
  P  P9106  1  0.49995408  0.32962191  0.72518634  1.0
  P  P9107  1  0.49995408  0.45462191  0.72518634  1.0
  P  P9108  1  0.49995408  0.57962191  0.72518634  1.0
  P  P9109  1  0.49995408  0.70462191  0.72518634  1.0
  P  P9110  1  0.49995408  0.82962191  0.72518634  1.0
  P  P9111  1  0.49995408  0.95462191  0.72518634  1.0
  P  P9112  1  0.61106519  0.07962191  0.72518634  1.0
  P  P9113  1  0.61106519  0.20462191  0.72518634  1.0
  P  P9114  1  0.61106519  0.32962191  0.72518634  1.0
  P  P9115  1  0.61106519  0.45462191  0.72518634  1.0
  P  P9116  1  0.61106519  0.57962191  0.72518634  1.0
  P  P9117  1  0.61106519  0.70462191  0.72518634  1.0
  P  P9118  1  0.61106519  0.82962191  0.72518634  1.0
  P  P9119  1  0.61106519  0.95462191  0.72518634  1.0
  P  P9120  1  0.72217630  0.07962191  0.72518634  1.0
  P  P9121  1  0.72217630  0.20462191  0.72518634  1.0
  P  P9122  1  0.72217630  0.32962191  0.72518634  1.0
  P  P9123  1  0.72217630  0.45462191  0.72518634  1.0
  P  P9124  1  0.72217630  0.57962191  0.72518634  1.0
  P  P9125  1  0.72217630  0.70462191  0.72518634  1.0
  P  P9126  1  0.72217630  0.82962191  0.72518634  1.0
  P  P9127  1  0.72217630  0.95462191  0.72518634  1.0
  P  P9128  1  0.83328741  0.07962191  0.72518634  1.0
  P  P9129  1  0.83328741  0.20462191  0.72518634  1.0
  P  P9130  1  0.83328741  0.32962191  0.72518634  1.0
  P  P9131  1  0.83328741  0.45462191  0.72518634  1.0
  P  P9132  1  0.83328741  0.57962191  0.72518634  1.0
  P  P9133  1  0.83328741  0.70462191  0.72518634  1.0
  P  P9134  1  0.83328741  0.82962191  0.72518634  1.0
  P  P9135  1  0.83328741  0.95462191  0.72518634  1.0
  P  P9136  1  0.94439853  0.07962191  0.72518634  1.0
  P  P9137  1  0.94439853  0.20462191  0.72518634  1.0
  P  P9138  1  0.94439853  0.32962191  0.72518634  1.0
  P  P9139  1  0.94439853  0.45462191  0.72518634  1.0
  P  P9140  1  0.94439853  0.57962191  0.72518634  1.0
  P  P9141  1  0.94439853  0.70462191  0.72518634  1.0
  P  P9142  1  0.94439853  0.82962191  0.72518634  1.0
  P  P9143  1  0.94439853  0.95462191  0.72518634  1.0
  P  P9144  1  0.05716220  0.04537809  0.69300677  1.0
  P  P9145  1  0.05716220  0.17037809  0.69300677  1.0
  P  P9146  1  0.05716220  0.29537809  0.69300677  1.0
  P  P9147  1  0.05716220  0.42037809  0.69300677  1.0
  P  P9148  1  0.05716220  0.54537809  0.69300677  1.0
  P  P9149  1  0.05716220  0.67037809  0.69300677  1.0
  P  P9150  1  0.05716220  0.79537809  0.69300677  1.0
  P  P9151  1  0.05716220  0.92037809  0.69300677  1.0
  P  P9152  1  0.16827331  0.04537809  0.69300677  1.0
  P  P9153  1  0.16827331  0.17037809  0.69300677  1.0
  P  P9154  1  0.16827331  0.29537809  0.69300677  1.0
  P  P9155  1  0.16827331  0.42037809  0.69300677  1.0
  P  P9156  1  0.16827331  0.54537809  0.69300677  1.0
  P  P9157  1  0.16827331  0.67037809  0.69300677  1.0
  P  P9158  1  0.16827331  0.79537809  0.69300677  1.0
  P  P9159  1  0.16827331  0.92037809  0.69300677  1.0
  P  P9160  1  0.27938442  0.04537809  0.69300677  1.0
  P  P9161  1  0.27938442  0.17037809  0.69300677  1.0
  P  P9162  1  0.27938442  0.29537809  0.69300677  1.0
  P  P9163  1  0.27938442  0.42037809  0.69300677  1.0
  P  P9164  1  0.27938442  0.54537809  0.69300677  1.0
  P  P9165  1  0.27938442  0.67037809  0.69300677  1.0
  P  P9166  1  0.27938442  0.79537809  0.69300677  1.0
  P  P9167  1  0.27938442  0.92037809  0.69300677  1.0
  P  P9168  1  0.39049553  0.04537809  0.69300677  1.0
  P  P9169  1  0.39049553  0.17037809  0.69300677  1.0
  P  P9170  1  0.39049553  0.29537809  0.69300677  1.0
  P  P9171  1  0.39049553  0.42037809  0.69300677  1.0
  P  P9172  1  0.39049553  0.54537809  0.69300677  1.0
  P  P9173  1  0.39049553  0.67037809  0.69300677  1.0
  P  P9174  1  0.39049553  0.79537809  0.69300677  1.0
  P  P9175  1  0.39049553  0.92037809  0.69300677  1.0
  P  P9176  1  0.50160664  0.04537809  0.69300677  1.0
  P  P9177  1  0.50160664  0.17037809  0.69300677  1.0
  P  P9178  1  0.50160664  0.29537809  0.69300677  1.0
  P  P9179  1  0.50160664  0.42037809  0.69300677  1.0
  P  P9180  1  0.50160664  0.54537809  0.69300677  1.0
  P  P9181  1  0.50160664  0.67037809  0.69300677  1.0
  P  P9182  1  0.50160664  0.79537809  0.69300677  1.0
  P  P9183  1  0.50160664  0.92037809  0.69300677  1.0
  P  P9184  1  0.61271775  0.04537809  0.69300677  1.0
  P  P9185  1  0.61271775  0.17037809  0.69300677  1.0
  P  P9186  1  0.61271775  0.29537809  0.69300677  1.0
  P  P9187  1  0.61271775  0.42037809  0.69300677  1.0
  P  P9188  1  0.61271775  0.54537809  0.69300677  1.0
  P  P9189  1  0.61271775  0.67037809  0.69300677  1.0
  P  P9190  1  0.61271775  0.79537809  0.69300677  1.0
  P  P9191  1  0.61271775  0.92037809  0.69300677  1.0
  P  P9192  1  0.72382886  0.04537809  0.69300677  1.0
  P  P9193  1  0.72382886  0.17037809  0.69300677  1.0
  P  P9194  1  0.72382886  0.29537809  0.69300677  1.0
  P  P9195  1  0.72382886  0.42037809  0.69300677  1.0
  P  P9196  1  0.72382886  0.54537809  0.69300677  1.0
  P  P9197  1  0.72382886  0.67037809  0.69300677  1.0
  P  P9198  1  0.72382886  0.79537809  0.69300677  1.0
  P  P9199  1  0.72382886  0.92037809  0.69300677  1.0
  P  P9200  1  0.83493998  0.04537809  0.69300677  1.0
  P  P9201  1  0.83493998  0.17037809  0.69300677  1.0
  P  P9202  1  0.83493998  0.29537809  0.69300677  1.0
  P  P9203  1  0.83493998  0.42037809  0.69300677  1.0
  P  P9204  1  0.83493998  0.54537809  0.69300677  1.0
  P  P9205  1  0.83493998  0.67037809  0.69300677  1.0
  P  P9206  1  0.83493998  0.79537809  0.69300677  1.0
  P  P9207  1  0.83493998  0.92037809  0.69300677  1.0
  P  P9208  1  0.94605109  0.04537809  0.69300677  1.0
  P  P9209  1  0.94605109  0.17037809  0.69300677  1.0
  P  P9210  1  0.94605109  0.29537809  0.69300677  1.0
  P  P9211  1  0.94605109  0.42037809  0.69300677  1.0
  P  P9212  1  0.94605109  0.54537809  0.69300677  1.0
  P  P9213  1  0.94605109  0.67037809  0.69300677  1.0
  P  P9214  1  0.94605109  0.79537809  0.69300677  1.0
  P  P9215  1  0.94605109  0.92037809  0.69300677  1.0
  P  P9216  1  0.03070717  0.04537809  0.64538772  1.0
  P  P9217  1  0.03070717  0.17037809  0.64538772  1.0
  P  P9218  1  0.03070717  0.29537809  0.64538772  1.0
  P  P9219  1  0.03070717  0.42037809  0.64538772  1.0
  P  P9220  1  0.03070717  0.54537809  0.64538772  1.0
  P  P9221  1  0.03070717  0.67037809  0.64538772  1.0
  P  P9222  1  0.03070717  0.79537809  0.64538772  1.0
  P  P9223  1  0.03070717  0.92037809  0.64538772  1.0
  P  P9224  1  0.14181828  0.04537809  0.64538772  1.0
  P  P9225  1  0.14181828  0.17037809  0.64538772  1.0
  P  P9226  1  0.14181828  0.29537809  0.64538772  1.0
  P  P9227  1  0.14181828  0.42037809  0.64538772  1.0
  P  P9228  1  0.14181828  0.54537809  0.64538772  1.0
  P  P9229  1  0.14181828  0.67037809  0.64538772  1.0
  P  P9230  1  0.14181828  0.79537809  0.64538772  1.0
  P  P9231  1  0.14181828  0.92037809  0.64538772  1.0
  P  P9232  1  0.25292939  0.04537809  0.64538772  1.0
  P  P9233  1  0.25292939  0.17037809  0.64538772  1.0
  P  P9234  1  0.25292939  0.29537809  0.64538772  1.0
  P  P9235  1  0.25292939  0.42037809  0.64538772  1.0
  P  P9236  1  0.25292939  0.54537809  0.64538772  1.0
  P  P9237  1  0.25292939  0.67037809  0.64538772  1.0
  P  P9238  1  0.25292939  0.79537809  0.64538772  1.0
  P  P9239  1  0.25292939  0.92037809  0.64538772  1.0
  P  P9240  1  0.36404050  0.04537809  0.64538772  1.0
  P  P9241  1  0.36404050  0.17037809  0.64538772  1.0
  P  P9242  1  0.36404050  0.29537809  0.64538772  1.0
  P  P9243  1  0.36404050  0.42037809  0.64538772  1.0
  P  P9244  1  0.36404050  0.54537809  0.64538772  1.0
  P  P9245  1  0.36404050  0.67037809  0.64538772  1.0
  P  P9246  1  0.36404050  0.79537809  0.64538772  1.0
  P  P9247  1  0.36404050  0.92037809  0.64538772  1.0
  P  P9248  1  0.47515162  0.04537809  0.64538772  1.0
  P  P9249  1  0.47515162  0.17037809  0.64538772  1.0
  P  P9250  1  0.47515162  0.29537809  0.64538772  1.0
  P  P9251  1  0.47515162  0.42037809  0.64538772  1.0
  P  P9252  1  0.47515162  0.54537809  0.64538772  1.0
  P  P9253  1  0.47515162  0.67037809  0.64538772  1.0
  P  P9254  1  0.47515162  0.79537809  0.64538772  1.0
  P  P9255  1  0.47515162  0.92037809  0.64538772  1.0
  P  P9256  1  0.58626273  0.04537809  0.64538772  1.0
  P  P9257  1  0.58626273  0.17037809  0.64538772  1.0
  P  P9258  1  0.58626273  0.29537809  0.64538772  1.0
  P  P9259  1  0.58626273  0.42037809  0.64538772  1.0
  P  P9260  1  0.58626273  0.54537809  0.64538772  1.0
  P  P9261  1  0.58626273  0.67037809  0.64538772  1.0
  P  P9262  1  0.58626273  0.79537809  0.64538772  1.0
  P  P9263  1  0.58626273  0.92037809  0.64538772  1.0
  P  P9264  1  0.69737384  0.04537809  0.64538772  1.0
  P  P9265  1  0.69737384  0.17037809  0.64538772  1.0
  P  P9266  1  0.69737384  0.29537809  0.64538772  1.0
  P  P9267  1  0.69737384  0.42037809  0.64538772  1.0
  P  P9268  1  0.69737384  0.54537809  0.64538772  1.0
  P  P9269  1  0.69737384  0.67037809  0.64538772  1.0
  P  P9270  1  0.69737384  0.79537809  0.64538772  1.0
  P  P9271  1  0.69737384  0.92037809  0.64538772  1.0
  P  P9272  1  0.80848495  0.04537809  0.64538772  1.0
  P  P9273  1  0.80848495  0.17037809  0.64538772  1.0
  P  P9274  1  0.80848495  0.29537809  0.64538772  1.0
  P  P9275  1  0.80848495  0.42037809  0.64538772  1.0
  P  P9276  1  0.80848495  0.54537809  0.64538772  1.0
  P  P9277  1  0.80848495  0.67037809  0.64538772  1.0
  P  P9278  1  0.80848495  0.79537809  0.64538772  1.0
  P  P9279  1  0.80848495  0.92037809  0.64538772  1.0
  P  P9280  1  0.91959606  0.04537809  0.64538772  1.0
  P  P9281  1  0.91959606  0.17037809  0.64538772  1.0
  P  P9282  1  0.91959606  0.29537809  0.64538772  1.0
  P  P9283  1  0.91959606  0.42037809  0.64538772  1.0
  P  P9284  1  0.91959606  0.54537809  0.64538772  1.0
  P  P9285  1  0.91959606  0.67037809  0.64538772  1.0
  P  P9286  1  0.91959606  0.79537809  0.64538772  1.0
  P  P9287  1  0.91959606  0.92037809  0.64538772  1.0
  P  P9288  1  0.08361722  0.04537809  0.74062582  1.0
  P  P9289  1  0.08361722  0.17037809  0.74062582  1.0
  P  P9290  1  0.08361722  0.29537809  0.74062582  1.0
  P  P9291  1  0.08361722  0.42037809  0.74062582  1.0
  P  P9292  1  0.08361722  0.54537809  0.74062582  1.0
  P  P9293  1  0.08361722  0.67037809  0.74062582  1.0
  P  P9294  1  0.08361722  0.79537809  0.74062582  1.0
  P  P9295  1  0.08361722  0.92037809  0.74062582  1.0
  P  P9296  1  0.19472834  0.04537809  0.74062582  1.0
  P  P9297  1  0.19472834  0.17037809  0.74062582  1.0
  P  P9298  1  0.19472834  0.29537809  0.74062582  1.0
  P  P9299  1  0.19472834  0.42037809  0.74062582  1.0
  P  P9300  1  0.19472834  0.54537809  0.74062582  1.0
  P  P9301  1  0.19472834  0.67037809  0.74062582  1.0
  P  P9302  1  0.19472834  0.79537809  0.74062582  1.0
  P  P9303  1  0.19472834  0.92037809  0.74062582  1.0
  P  P9304  1  0.30583945  0.04537809  0.74062582  1.0
  P  P9305  1  0.30583945  0.17037809  0.74062582  1.0
  P  P9306  1  0.30583945  0.29537809  0.74062582  1.0
  P  P9307  1  0.30583945  0.42037809  0.74062582  1.0
  P  P9308  1  0.30583945  0.54537809  0.74062582  1.0
  P  P9309  1  0.30583945  0.67037809  0.74062582  1.0
  P  P9310  1  0.30583945  0.79537809  0.74062582  1.0
  P  P9311  1  0.30583945  0.92037809  0.74062582  1.0
  P  P9312  1  0.41695056  0.04537809  0.74062582  1.0
  P  P9313  1  0.41695056  0.17037809  0.74062582  1.0
  P  P9314  1  0.41695056  0.29537809  0.74062582  1.0
  P  P9315  1  0.41695056  0.42037809  0.74062582  1.0
  P  P9316  1  0.41695056  0.54537809  0.74062582  1.0
  P  P9317  1  0.41695056  0.67037809  0.74062582  1.0
  P  P9318  1  0.41695056  0.79537809  0.74062582  1.0
  P  P9319  1  0.41695056  0.92037809  0.74062582  1.0
  P  P9320  1  0.52806167  0.04537809  0.74062582  1.0
  P  P9321  1  0.52806167  0.17037809  0.74062582  1.0
  P  P9322  1  0.52806167  0.29537809  0.74062582  1.0
  P  P9323  1  0.52806167  0.42037809  0.74062582  1.0
  P  P9324  1  0.52806167  0.54537809  0.74062582  1.0
  P  P9325  1  0.52806167  0.67037809  0.74062582  1.0
  P  P9326  1  0.52806167  0.79537809  0.74062582  1.0
  P  P9327  1  0.52806167  0.92037809  0.74062582  1.0
  P  P9328  1  0.63917278  0.04537809  0.74062582  1.0
  P  P9329  1  0.63917278  0.17037809  0.74062582  1.0
  P  P9330  1  0.63917278  0.29537809  0.74062582  1.0
  P  P9331  1  0.63917278  0.42037809  0.74062582  1.0
  P  P9332  1  0.63917278  0.54537809  0.74062582  1.0
  P  P9333  1  0.63917278  0.67037809  0.74062582  1.0
  P  P9334  1  0.63917278  0.79537809  0.74062582  1.0
  P  P9335  1  0.63917278  0.92037809  0.74062582  1.0
  P  P9336  1  0.75028389  0.04537809  0.74062582  1.0
  P  P9337  1  0.75028389  0.17037809  0.74062582  1.0
  P  P9338  1  0.75028389  0.29537809  0.74062582  1.0
  P  P9339  1  0.75028389  0.42037809  0.74062582  1.0
  P  P9340  1  0.75028389  0.54537809  0.74062582  1.0
  P  P9341  1  0.75028389  0.67037809  0.74062582  1.0
  P  P9342  1  0.75028389  0.79537809  0.74062582  1.0
  P  P9343  1  0.75028389  0.92037809  0.74062582  1.0
  P  P9344  1  0.86139500  0.04537809  0.74062582  1.0
  P  P9345  1  0.86139500  0.17037809  0.74062582  1.0
  P  P9346  1  0.86139500  0.29537809  0.74062582  1.0
  P  P9347  1  0.86139500  0.42037809  0.74062582  1.0
  P  P9348  1  0.86139500  0.54537809  0.74062582  1.0
  P  P9349  1  0.86139500  0.67037809  0.74062582  1.0
  P  P9350  1  0.86139500  0.79537809  0.74062582  1.0
  P  P9351  1  0.86139500  0.92037809  0.74062582  1.0
  P  P9352  1  0.97250611  0.04537809  0.74062582  1.0
  P  P9353  1  0.97250611  0.17037809  0.74062582  1.0
  P  P9354  1  0.97250611  0.29537809  0.74062582  1.0
  P  P9355  1  0.97250611  0.42037809  0.74062582  1.0
  P  P9356  1  0.97250611  0.54537809  0.74062582  1.0
  P  P9357  1  0.97250611  0.67037809  0.74062582  1.0
  P  P9358  1  0.97250611  0.79537809  0.74062582  1.0
  P  P9359  1  0.97250611  0.92037809  0.74062582  1.0
  P  P9360  1  0.05990416  0.12004423  0.69146442  1.0
  P  P9361  1  0.05990416  0.24504423  0.69146442  1.0
  P  P9362  1  0.05990416  0.37004423  0.69146442  1.0
  P  P9363  1  0.05990416  0.49504423  0.69146442  1.0
  P  P9364  1  0.05990416  0.62004423  0.69146442  1.0
  P  P9365  1  0.05990416  0.74504423  0.69146442  1.0
  P  P9366  1  0.05990416  0.87004423  0.69146442  1.0
  P  P9367  1  0.05990416  0.99504423  0.69146442  1.0
  P  P9368  1  0.17101527  0.12004423  0.69146442  1.0
  P  P9369  1  0.17101527  0.24504423  0.69146442  1.0
  P  P9370  1  0.17101527  0.37004423  0.69146442  1.0
  P  P9371  1  0.17101527  0.49504423  0.69146442  1.0
  P  P9372  1  0.17101527  0.62004423  0.69146442  1.0
  P  P9373  1  0.17101527  0.74504423  0.69146442  1.0
  P  P9374  1  0.17101527  0.87004423  0.69146442  1.0
  P  P9375  1  0.17101527  0.99504423  0.69146442  1.0
  P  P9376  1  0.28212638  0.12004423  0.69146442  1.0
  P  P9377  1  0.28212638  0.24504423  0.69146442  1.0
  P  P9378  1  0.28212638  0.37004423  0.69146442  1.0
  P  P9379  1  0.28212638  0.49504423  0.69146442  1.0
  P  P9380  1  0.28212638  0.62004423  0.69146442  1.0
  P  P9381  1  0.28212638  0.74504423  0.69146442  1.0
  P  P9382  1  0.28212638  0.87004423  0.69146442  1.0
  P  P9383  1  0.28212638  0.99504423  0.69146442  1.0
  P  P9384  1  0.39323749  0.12004423  0.69146442  1.0
  P  P9385  1  0.39323749  0.24504423  0.69146442  1.0
  P  P9386  1  0.39323749  0.37004423  0.69146442  1.0
  P  P9387  1  0.39323749  0.49504423  0.69146442  1.0
  P  P9388  1  0.39323749  0.62004423  0.69146442  1.0
  P  P9389  1  0.39323749  0.74504423  0.69146442  1.0
  P  P9390  1  0.39323749  0.87004423  0.69146442  1.0
  P  P9391  1  0.39323749  0.99504423  0.69146442  1.0
  P  P9392  1  0.50434861  0.12004423  0.69146442  1.0
  P  P9393  1  0.50434861  0.24504423  0.69146442  1.0
  P  P9394  1  0.50434861  0.37004423  0.69146442  1.0
  P  P9395  1  0.50434861  0.49504423  0.69146442  1.0
  P  P9396  1  0.50434861  0.62004423  0.69146442  1.0
  P  P9397  1  0.50434861  0.74504423  0.69146442  1.0
  P  P9398  1  0.50434861  0.87004423  0.69146442  1.0
  P  P9399  1  0.50434861  0.99504423  0.69146442  1.0
  P  P9400  1  0.61545972  0.12004423  0.69146442  1.0
  P  P9401  1  0.61545972  0.24504423  0.69146442  1.0
  P  P9402  1  0.61545972  0.37004423  0.69146442  1.0
  P  P9403  1  0.61545972  0.49504423  0.69146442  1.0
  P  P9404  1  0.61545972  0.62004423  0.69146442  1.0
  P  P9405  1  0.61545972  0.74504423  0.69146442  1.0
  P  P9406  1  0.61545972  0.87004423  0.69146442  1.0
  P  P9407  1  0.61545972  0.99504423  0.69146442  1.0
  P  P9408  1  0.72657083  0.12004423  0.69146442  1.0
  P  P9409  1  0.72657083  0.24504423  0.69146442  1.0
  P  P9410  1  0.72657083  0.37004423  0.69146442  1.0
  P  P9411  1  0.72657083  0.49504423  0.69146442  1.0
  P  P9412  1  0.72657083  0.62004423  0.69146442  1.0
  P  P9413  1  0.72657083  0.74504423  0.69146442  1.0
  P  P9414  1  0.72657083  0.87004423  0.69146442  1.0
  P  P9415  1  0.72657083  0.99504423  0.69146442  1.0
  P  P9416  1  0.83768194  0.12004423  0.69146442  1.0
  P  P9417  1  0.83768194  0.24504423  0.69146442  1.0
  P  P9418  1  0.83768194  0.37004423  0.69146442  1.0
  P  P9419  1  0.83768194  0.49504423  0.69146442  1.0
  P  P9420  1  0.83768194  0.62004423  0.69146442  1.0
  P  P9421  1  0.83768194  0.74504423  0.69146442  1.0
  P  P9422  1  0.83768194  0.87004423  0.69146442  1.0
  P  P9423  1  0.83768194  0.99504423  0.69146442  1.0
  P  P9424  1  0.94879305  0.12004423  0.69146442  1.0
  P  P9425  1  0.94879305  0.24504423  0.69146442  1.0
  P  P9426  1  0.94879305  0.37004423  0.69146442  1.0
  P  P9427  1  0.94879305  0.49504423  0.69146442  1.0
  P  P9428  1  0.94879305  0.62004423  0.69146442  1.0
  P  P9429  1  0.94879305  0.74504423  0.69146442  1.0
  P  P9430  1  0.94879305  0.87004423  0.69146442  1.0
  P  P9431  1  0.94879305  0.99504423  0.69146442  1.0
  P  P9432  1  0.03344914  0.12004423  0.64384537  1.0
  P  P9433  1  0.03344914  0.24504423  0.64384537  1.0
  P  P9434  1  0.03344914  0.37004423  0.64384537  1.0
  P  P9435  1  0.03344914  0.49504423  0.64384537  1.0
  P  P9436  1  0.03344914  0.62004423  0.64384537  1.0
  P  P9437  1  0.03344914  0.74504423  0.64384537  1.0
  P  P9438  1  0.03344914  0.87004423  0.64384537  1.0
  P  P9439  1  0.03344914  0.99504423  0.64384537  1.0
  P  P9440  1  0.14456025  0.12004423  0.64384537  1.0
  P  P9441  1  0.14456025  0.24504423  0.64384537  1.0
  P  P9442  1  0.14456025  0.37004423  0.64384537  1.0
  P  P9443  1  0.14456025  0.49504423  0.64384537  1.0
  P  P9444  1  0.14456025  0.62004423  0.64384537  1.0
  P  P9445  1  0.14456025  0.74504423  0.64384537  1.0
  P  P9446  1  0.14456025  0.87004423  0.64384537  1.0
  P  P9447  1  0.14456025  0.99504423  0.64384537  1.0
  P  P9448  1  0.25567136  0.12004423  0.64384537  1.0
  P  P9449  1  0.25567136  0.24504423  0.64384537  1.0
  P  P9450  1  0.25567136  0.37004423  0.64384537  1.0
  P  P9451  1  0.25567136  0.49504423  0.64384537  1.0
  P  P9452  1  0.25567136  0.62004423  0.64384537  1.0
  P  P9453  1  0.25567136  0.74504423  0.64384537  1.0
  P  P9454  1  0.25567136  0.87004423  0.64384537  1.0
  P  P9455  1  0.25567136  0.99504423  0.64384537  1.0
  P  P9456  1  0.36678247  0.12004423  0.64384537  1.0
  P  P9457  1  0.36678247  0.24504423  0.64384537  1.0
  P  P9458  1  0.36678247  0.37004423  0.64384537  1.0
  P  P9459  1  0.36678247  0.49504423  0.64384537  1.0
  P  P9460  1  0.36678247  0.62004423  0.64384537  1.0
  P  P9461  1  0.36678247  0.74504423  0.64384537  1.0
  P  P9462  1  0.36678247  0.87004423  0.64384537  1.0
  P  P9463  1  0.36678247  0.99504423  0.64384537  1.0
  P  P9464  1  0.47789358  0.12004423  0.64384537  1.0
  P  P9465  1  0.47789358  0.24504423  0.64384537  1.0
  P  P9466  1  0.47789358  0.37004423  0.64384537  1.0
  P  P9467  1  0.47789358  0.49504423  0.64384537  1.0
  P  P9468  1  0.47789358  0.62004423  0.64384537  1.0
  P  P9469  1  0.47789358  0.74504423  0.64384537  1.0
  P  P9470  1  0.47789358  0.87004423  0.64384537  1.0
  P  P9471  1  0.47789358  0.99504423  0.64384537  1.0
  P  P9472  1  0.58900469  0.12004423  0.64384537  1.0
  P  P9473  1  0.58900469  0.24504423  0.64384537  1.0
  P  P9474  1  0.58900469  0.37004423  0.64384537  1.0
  P  P9475  1  0.58900469  0.49504423  0.64384537  1.0
  P  P9476  1  0.58900469  0.62004423  0.64384537  1.0
  P  P9477  1  0.58900469  0.74504423  0.64384537  1.0
  P  P9478  1  0.58900469  0.87004423  0.64384537  1.0
  P  P9479  1  0.58900469  0.99504423  0.64384537  1.0
  P  P9480  1  0.70011580  0.12004423  0.64384537  1.0
  P  P9481  1  0.70011580  0.24504423  0.64384537  1.0
  P  P9482  1  0.70011580  0.37004423  0.64384537  1.0
  P  P9483  1  0.70011580  0.49504423  0.64384537  1.0
  P  P9484  1  0.70011580  0.62004423  0.64384537  1.0
  P  P9485  1  0.70011580  0.74504423  0.64384537  1.0
  P  P9486  1  0.70011580  0.87004423  0.64384537  1.0
  P  P9487  1  0.70011580  0.99504423  0.64384537  1.0
  P  P9488  1  0.81122691  0.12004423  0.64384537  1.0
  P  P9489  1  0.81122691  0.24504423  0.64384537  1.0
  P  P9490  1  0.81122691  0.37004423  0.64384537  1.0
  P  P9491  1  0.81122691  0.49504423  0.64384537  1.0
  P  P9492  1  0.81122691  0.62004423  0.64384537  1.0
  P  P9493  1  0.81122691  0.74504423  0.64384537  1.0
  P  P9494  1  0.81122691  0.87004423  0.64384537  1.0
  P  P9495  1  0.81122691  0.99504423  0.64384537  1.0
  P  P9496  1  0.92233802  0.12004423  0.64384537  1.0
  P  P9497  1  0.92233802  0.24504423  0.64384537  1.0
  P  P9498  1  0.92233802  0.37004423  0.64384537  1.0
  P  P9499  1  0.92233802  0.49504423  0.64384537  1.0
  P  P9500  1  0.92233802  0.62004423  0.64384537  1.0
  P  P9501  1  0.92233802  0.74504423  0.64384537  1.0
  P  P9502  1  0.92233802  0.87004423  0.64384537  1.0
  P  P9503  1  0.92233802  0.99504423  0.64384537  1.0
  P  P9504  1  0.08635919  0.12004423  0.73908346  1.0
  P  P9505  1  0.08635919  0.24504423  0.73908346  1.0
  P  P9506  1  0.08635919  0.37004423  0.73908346  1.0
  P  P9507  1  0.08635919  0.49504423  0.73908346  1.0
  P  P9508  1  0.08635919  0.62004423  0.73908346  1.0
  P  P9509  1  0.08635919  0.74504423  0.73908346  1.0
  P  P9510  1  0.08635919  0.87004423  0.73908346  1.0
  P  P9511  1  0.08635919  0.99504423  0.73908346  1.0
  P  P9512  1  0.19747030  0.12004423  0.73908346  1.0
  P  P9513  1  0.19747030  0.24504423  0.73908346  1.0
  P  P9514  1  0.19747030  0.37004423  0.73908346  1.0
  P  P9515  1  0.19747030  0.49504423  0.73908346  1.0
  P  P9516  1  0.19747030  0.62004423  0.73908346  1.0
  P  P9517  1  0.19747030  0.74504423  0.73908346  1.0
  P  P9518  1  0.19747030  0.87004423  0.73908346  1.0
  P  P9519  1  0.19747030  0.99504423  0.73908346  1.0
  P  P9520  1  0.30858141  0.12004423  0.73908346  1.0
  P  P9521  1  0.30858141  0.24504423  0.73908346  1.0
  P  P9522  1  0.30858141  0.37004423  0.73908346  1.0
  P  P9523  1  0.30858141  0.49504423  0.73908346  1.0
  P  P9524  1  0.30858141  0.62004423  0.73908346  1.0
  P  P9525  1  0.30858141  0.74504423  0.73908346  1.0
  P  P9526  1  0.30858141  0.87004423  0.73908346  1.0
  P  P9527  1  0.30858141  0.99504423  0.73908346  1.0
  P  P9528  1  0.41969252  0.12004423  0.73908346  1.0
  P  P9529  1  0.41969252  0.24504423  0.73908346  1.0
  P  P9530  1  0.41969252  0.37004423  0.73908346  1.0
  P  P9531  1  0.41969252  0.49504423  0.73908346  1.0
  P  P9532  1  0.41969252  0.62004423  0.73908346  1.0
  P  P9533  1  0.41969252  0.74504423  0.73908346  1.0
  P  P9534  1  0.41969252  0.87004423  0.73908346  1.0
  P  P9535  1  0.41969252  0.99504423  0.73908346  1.0
  P  P9536  1  0.53080363  0.12004423  0.73908346  1.0
  P  P9537  1  0.53080363  0.24504423  0.73908346  1.0
  P  P9538  1  0.53080363  0.37004423  0.73908346  1.0
  P  P9539  1  0.53080363  0.49504423  0.73908346  1.0
  P  P9540  1  0.53080363  0.62004423  0.73908346  1.0
  P  P9541  1  0.53080363  0.74504423  0.73908346  1.0
  P  P9542  1  0.53080363  0.87004423  0.73908346  1.0
  P  P9543  1  0.53080363  0.99504423  0.73908346  1.0
  P  P9544  1  0.64191474  0.12004423  0.73908346  1.0
  P  P9545  1  0.64191474  0.24504423  0.73908346  1.0
  P  P9546  1  0.64191474  0.37004423  0.73908346  1.0
  P  P9547  1  0.64191474  0.49504423  0.73908346  1.0
  P  P9548  1  0.64191474  0.62004423  0.73908346  1.0
  P  P9549  1  0.64191474  0.74504423  0.73908346  1.0
  P  P9550  1  0.64191474  0.87004423  0.73908346  1.0
  P  P9551  1  0.64191474  0.99504423  0.73908346  1.0
  P  P9552  1  0.75302585  0.12004423  0.73908346  1.0
  P  P9553  1  0.75302585  0.24504423  0.73908346  1.0
  P  P9554  1  0.75302585  0.37004423  0.73908346  1.0
  P  P9555  1  0.75302585  0.49504423  0.73908346  1.0
  P  P9556  1  0.75302585  0.62004423  0.73908346  1.0
  P  P9557  1  0.75302585  0.74504423  0.73908346  1.0
  P  P9558  1  0.75302585  0.87004423  0.73908346  1.0
  P  P9559  1  0.75302585  0.99504423  0.73908346  1.0
  P  P9560  1  0.86413697  0.12004423  0.73908346  1.0
  P  P9561  1  0.86413697  0.24504423  0.73908346  1.0
  P  P9562  1  0.86413697  0.37004423  0.73908346  1.0
  P  P9563  1  0.86413697  0.49504423  0.73908346  1.0
  P  P9564  1  0.86413697  0.62004423  0.73908346  1.0
  P  P9565  1  0.86413697  0.74504423  0.73908346  1.0
  P  P9566  1  0.86413697  0.87004423  0.73908346  1.0
  P  P9567  1  0.86413697  0.99504423  0.73908346  1.0
  P  P9568  1  0.97524808  0.12004423  0.73908346  1.0
  P  P9569  1  0.97524808  0.24504423  0.73908346  1.0
  P  P9570  1  0.97524808  0.37004423  0.73908346  1.0
  P  P9571  1  0.97524808  0.49504423  0.73908346  1.0
  P  P9572  1  0.97524808  0.62004423  0.73908346  1.0
  P  P9573  1  0.97524808  0.74504423  0.73908346  1.0
  P  P9574  1  0.97524808  0.87004423  0.73908346  1.0
  P  P9575  1  0.97524808  0.99504423  0.73908346  1.0
  P  P9576  1  0.02631265  0.00495577  0.67910964  1.0
  P  P9577  1  0.02631265  0.12995577  0.67910964  1.0
  P  P9578  1  0.02631265  0.25495577  0.67910964  1.0
  P  P9579  1  0.02631265  0.37995577  0.67910964  1.0
  P  P9580  1  0.02631265  0.50495577  0.67910964  1.0
  P  P9581  1  0.02631265  0.62995577  0.67910964  1.0
  P  P9582  1  0.02631265  0.75495577  0.67910964  1.0
  P  P9583  1  0.02631265  0.87995577  0.67910964  1.0
  P  P9584  1  0.13742376  0.00495577  0.67910964  1.0
  P  P9585  1  0.13742376  0.12995577  0.67910964  1.0
  P  P9586  1  0.13742376  0.25495577  0.67910964  1.0
  P  P9587  1  0.13742376  0.37995577  0.67910964  1.0
  P  P9588  1  0.13742376  0.50495577  0.67910964  1.0
  P  P9589  1  0.13742376  0.62995577  0.67910964  1.0
  P  P9590  1  0.13742376  0.75495577  0.67910964  1.0
  P  P9591  1  0.13742376  0.87995577  0.67910964  1.0
  P  P9592  1  0.24853487  0.00495577  0.67910964  1.0
  P  P9593  1  0.24853487  0.12995577  0.67910964  1.0
  P  P9594  1  0.24853487  0.25495577  0.67910964  1.0
  P  P9595  1  0.24853487  0.37995577  0.67910964  1.0
  P  P9596  1  0.24853487  0.50495577  0.67910964  1.0
  P  P9597  1  0.24853487  0.62995577  0.67910964  1.0
  P  P9598  1  0.24853487  0.75495577  0.67910964  1.0
  P  P9599  1  0.24853487  0.87995577  0.67910964  1.0
  P  P9600  1  0.35964598  0.00495577  0.67910964  1.0
  P  P9601  1  0.35964598  0.12995577  0.67910964  1.0
  P  P9602  1  0.35964598  0.25495577  0.67910964  1.0
  P  P9603  1  0.35964598  0.37995577  0.67910964  1.0
  P  P9604  1  0.35964598  0.50495577  0.67910964  1.0
  P  P9605  1  0.35964598  0.62995577  0.67910964  1.0
  P  P9606  1  0.35964598  0.75495577  0.67910964  1.0
  P  P9607  1  0.35964598  0.87995577  0.67910964  1.0
  P  P9608  1  0.47075709  0.00495577  0.67910964  1.0
  P  P9609  1  0.47075709  0.12995577  0.67910964  1.0
  P  P9610  1  0.47075709  0.25495577  0.67910964  1.0
  P  P9611  1  0.47075709  0.37995577  0.67910964  1.0
  P  P9612  1  0.47075709  0.50495577  0.67910964  1.0
  P  P9613  1  0.47075709  0.62995577  0.67910964  1.0
  P  P9614  1  0.47075709  0.75495577  0.67910964  1.0
  P  P9615  1  0.47075709  0.87995577  0.67910964  1.0
  P  P9616  1  0.58186820  0.00495577  0.67910964  1.0
  P  P9617  1  0.58186820  0.12995577  0.67910964  1.0
  P  P9618  1  0.58186820  0.25495577  0.67910964  1.0
  P  P9619  1  0.58186820  0.37995577  0.67910964  1.0
  P  P9620  1  0.58186820  0.50495577  0.67910964  1.0
  P  P9621  1  0.58186820  0.62995577  0.67910964  1.0
  P  P9622  1  0.58186820  0.75495577  0.67910964  1.0
  P  P9623  1  0.58186820  0.87995577  0.67910964  1.0
  P  P9624  1  0.69297931  0.00495577  0.67910964  1.0
  P  P9625  1  0.69297931  0.12995577  0.67910964  1.0
  P  P9626  1  0.69297931  0.25495577  0.67910964  1.0
  P  P9627  1  0.69297931  0.37995577  0.67910964  1.0
  P  P9628  1  0.69297931  0.50495577  0.67910964  1.0
  P  P9629  1  0.69297931  0.62995577  0.67910964  1.0
  P  P9630  1  0.69297931  0.75495577  0.67910964  1.0
  P  P9631  1  0.69297931  0.87995577  0.67910964  1.0
  P  P9632  1  0.80409042  0.00495577  0.67910964  1.0
  P  P9633  1  0.80409042  0.12995577  0.67910964  1.0
  P  P9634  1  0.80409042  0.25495577  0.67910964  1.0
  P  P9635  1  0.80409042  0.37995577  0.67910964  1.0
  P  P9636  1  0.80409042  0.50495577  0.67910964  1.0
  P  P9637  1  0.80409042  0.62995577  0.67910964  1.0
  P  P9638  1  0.80409042  0.75495577  0.67910964  1.0
  P  P9639  1  0.80409042  0.87995577  0.67910964  1.0
  P  P9640  1  0.91520153  0.00495577  0.67910964  1.0
  P  P9641  1  0.91520153  0.12995577  0.67910964  1.0
  P  P9642  1  0.91520153  0.25495577  0.67910964  1.0
  P  P9643  1  0.91520153  0.37995577  0.67910964  1.0
  P  P9644  1  0.91520153  0.50495577  0.67910964  1.0
  P  P9645  1  0.91520153  0.62995577  0.67910964  1.0
  P  P9646  1  0.91520153  0.75495577  0.67910964  1.0
  P  P9647  1  0.91520153  0.87995577  0.67910964  1.0
  P  P9648  1  0.07922270  0.00495577  0.77434774  1.0
  P  P9649  1  0.07922270  0.12995577  0.77434774  1.0
  P  P9650  1  0.07922270  0.25495577  0.77434774  1.0
  P  P9651  1  0.07922270  0.37995577  0.77434774  1.0
  P  P9652  1  0.07922270  0.50495577  0.77434774  1.0
  P  P9653  1  0.07922270  0.62995577  0.77434774  1.0
  P  P9654  1  0.07922270  0.75495577  0.77434774  1.0
  P  P9655  1  0.07922270  0.87995577  0.77434774  1.0
  P  P9656  1  0.19033381  0.00495577  0.77434774  1.0
  P  P9657  1  0.19033381  0.12995577  0.77434774  1.0
  P  P9658  1  0.19033381  0.25495577  0.77434774  1.0
  P  P9659  1  0.19033381  0.37995577  0.77434774  1.0
  P  P9660  1  0.19033381  0.50495577  0.77434774  1.0
  P  P9661  1  0.19033381  0.62995577  0.77434774  1.0
  P  P9662  1  0.19033381  0.75495577  0.77434774  1.0
  P  P9663  1  0.19033381  0.87995577  0.77434774  1.0
  P  P9664  1  0.30144492  0.00495577  0.77434774  1.0
  P  P9665  1  0.30144492  0.12995577  0.77434774  1.0
  P  P9666  1  0.30144492  0.25495577  0.77434774  1.0
  P  P9667  1  0.30144492  0.37995577  0.77434774  1.0
  P  P9668  1  0.30144492  0.50495577  0.77434774  1.0
  P  P9669  1  0.30144492  0.62995577  0.77434774  1.0
  P  P9670  1  0.30144492  0.75495577  0.77434774  1.0
  P  P9671  1  0.30144492  0.87995577  0.77434774  1.0
  P  P9672  1  0.41255603  0.00495577  0.77434774  1.0
  P  P9673  1  0.41255603  0.12995577  0.77434774  1.0
  P  P9674  1  0.41255603  0.25495577  0.77434774  1.0
  P  P9675  1  0.41255603  0.37995577  0.77434774  1.0
  P  P9676  1  0.41255603  0.50495577  0.77434774  1.0
  P  P9677  1  0.41255603  0.62995577  0.77434774  1.0
  P  P9678  1  0.41255603  0.75495577  0.77434774  1.0
  P  P9679  1  0.41255603  0.87995577  0.77434774  1.0
  P  P9680  1  0.52366714  0.00495577  0.77434774  1.0
  P  P9681  1  0.52366714  0.12995577  0.77434774  1.0
  P  P9682  1  0.52366714  0.25495577  0.77434774  1.0
  P  P9683  1  0.52366714  0.37995577  0.77434774  1.0
  P  P9684  1  0.52366714  0.50495577  0.77434774  1.0
  P  P9685  1  0.52366714  0.62995577  0.77434774  1.0
  P  P9686  1  0.52366714  0.75495577  0.77434774  1.0
  P  P9687  1  0.52366714  0.87995577  0.77434774  1.0
  P  P9688  1  0.63477825  0.00495577  0.77434774  1.0
  P  P9689  1  0.63477825  0.12995577  0.77434774  1.0
  P  P9690  1  0.63477825  0.25495577  0.77434774  1.0
  P  P9691  1  0.63477825  0.37995577  0.77434774  1.0
  P  P9692  1  0.63477825  0.50495577  0.77434774  1.0
  P  P9693  1  0.63477825  0.62995577  0.77434774  1.0
  P  P9694  1  0.63477825  0.75495577  0.77434774  1.0
  P  P9695  1  0.63477825  0.87995577  0.77434774  1.0
  P  P9696  1  0.74588937  0.00495577  0.77434774  1.0
  P  P9697  1  0.74588937  0.12995577  0.77434774  1.0
  P  P9698  1  0.74588937  0.25495577  0.77434774  1.0
  P  P9699  1  0.74588937  0.37995577  0.77434774  1.0
  P  P9700  1  0.74588937  0.50495577  0.77434774  1.0
  P  P9701  1  0.74588937  0.62995577  0.77434774  1.0
  P  P9702  1  0.74588937  0.75495577  0.77434774  1.0
  P  P9703  1  0.74588937  0.87995577  0.77434774  1.0
  P  P9704  1  0.85700048  0.00495577  0.77434774  1.0
  P  P9705  1  0.85700048  0.12995577  0.77434774  1.0
  P  P9706  1  0.85700048  0.25495577  0.77434774  1.0
  P  P9707  1  0.85700048  0.37995577  0.77434774  1.0
  P  P9708  1  0.85700048  0.50495577  0.77434774  1.0
  P  P9709  1  0.85700048  0.62995577  0.77434774  1.0
  P  P9710  1  0.85700048  0.75495577  0.77434774  1.0
  P  P9711  1  0.85700048  0.87995577  0.77434774  1.0
  P  P9712  1  0.96811159  0.00495577  0.77434774  1.0
  P  P9713  1  0.96811159  0.12995577  0.77434774  1.0
  P  P9714  1  0.96811159  0.25495577  0.77434774  1.0
  P  P9715  1  0.96811159  0.37995577  0.77434774  1.0
  P  P9716  1  0.96811159  0.50495577  0.77434774  1.0
  P  P9717  1  0.96811159  0.62995577  0.77434774  1.0
  P  P9718  1  0.96811159  0.75495577  0.77434774  1.0
  P  P9719  1  0.96811159  0.87995577  0.77434774  1.0
  P  P9720  1  0.05276767  0.00495577  0.72672869  1.0
  P  P9721  1  0.05276767  0.12995577  0.72672869  1.0
  P  P9722  1  0.05276767  0.25495577  0.72672869  1.0
  P  P9723  1  0.05276767  0.37995577  0.72672869  1.0
  P  P9724  1  0.05276767  0.50495577  0.72672869  1.0
  P  P9725  1  0.05276767  0.62995577  0.72672869  1.0
  P  P9726  1  0.05276767  0.75495577  0.72672869  1.0
  P  P9727  1  0.05276767  0.87995577  0.72672869  1.0
  P  P9728  1  0.16387878  0.00495577  0.72672869  1.0
  P  P9729  1  0.16387878  0.12995577  0.72672869  1.0
  P  P9730  1  0.16387878  0.25495577  0.72672869  1.0
  P  P9731  1  0.16387878  0.37995577  0.72672869  1.0
  P  P9732  1  0.16387878  0.50495577  0.72672869  1.0
  P  P9733  1  0.16387878  0.62995577  0.72672869  1.0
  P  P9734  1  0.16387878  0.75495577  0.72672869  1.0
  P  P9735  1  0.16387878  0.87995577  0.72672869  1.0
  P  P9736  1  0.27498989  0.00495577  0.72672869  1.0
  P  P9737  1  0.27498989  0.12995577  0.72672869  1.0
  P  P9738  1  0.27498989  0.25495577  0.72672869  1.0
  P  P9739  1  0.27498989  0.37995577  0.72672869  1.0
  P  P9740  1  0.27498989  0.50495577  0.72672869  1.0
  P  P9741  1  0.27498989  0.62995577  0.72672869  1.0
  P  P9742  1  0.27498989  0.75495577  0.72672869  1.0
  P  P9743  1  0.27498989  0.87995577  0.72672869  1.0
  P  P9744  1  0.38610101  0.00495577  0.72672869  1.0
  P  P9745  1  0.38610101  0.12995577  0.72672869  1.0
  P  P9746  1  0.38610101  0.25495577  0.72672869  1.0
  P  P9747  1  0.38610101  0.37995577  0.72672869  1.0
  P  P9748  1  0.38610101  0.50495577  0.72672869  1.0
  P  P9749  1  0.38610101  0.62995577  0.72672869  1.0
  P  P9750  1  0.38610101  0.75495577  0.72672869  1.0
  P  P9751  1  0.38610101  0.87995577  0.72672869  1.0
  P  P9752  1  0.49721212  0.00495577  0.72672869  1.0
  P  P9753  1  0.49721212  0.12995577  0.72672869  1.0
  P  P9754  1  0.49721212  0.25495577  0.72672869  1.0
  P  P9755  1  0.49721212  0.37995577  0.72672869  1.0
  P  P9756  1  0.49721212  0.50495577  0.72672869  1.0
  P  P9757  1  0.49721212  0.62995577  0.72672869  1.0
  P  P9758  1  0.49721212  0.75495577  0.72672869  1.0
  P  P9759  1  0.49721212  0.87995577  0.72672869  1.0
  P  P9760  1  0.60832323  0.00495577  0.72672869  1.0
  P  P9761  1  0.60832323  0.12995577  0.72672869  1.0
  P  P9762  1  0.60832323  0.25495577  0.72672869  1.0
  P  P9763  1  0.60832323  0.37995577  0.72672869  1.0
  P  P9764  1  0.60832323  0.50495577  0.72672869  1.0
  P  P9765  1  0.60832323  0.62995577  0.72672869  1.0
  P  P9766  1  0.60832323  0.75495577  0.72672869  1.0
  P  P9767  1  0.60832323  0.87995577  0.72672869  1.0
  P  P9768  1  0.71943434  0.00495577  0.72672869  1.0
  P  P9769  1  0.71943434  0.12995577  0.72672869  1.0
  P  P9770  1  0.71943434  0.25495577  0.72672869  1.0
  P  P9771  1  0.71943434  0.37995577  0.72672869  1.0
  P  P9772  1  0.71943434  0.50495577  0.72672869  1.0
  P  P9773  1  0.71943434  0.62995577  0.72672869  1.0
  P  P9774  1  0.71943434  0.75495577  0.72672869  1.0
  P  P9775  1  0.71943434  0.87995577  0.72672869  1.0
  P  P9776  1  0.83054545  0.00495577  0.72672869  1.0
  P  P9777  1  0.83054545  0.12995577  0.72672869  1.0
  P  P9778  1  0.83054545  0.25495577  0.72672869  1.0
  P  P9779  1  0.83054545  0.37995577  0.72672869  1.0
  P  P9780  1  0.83054545  0.50495577  0.72672869  1.0
  P  P9781  1  0.83054545  0.62995577  0.72672869  1.0
  P  P9782  1  0.83054545  0.75495577  0.72672869  1.0
  P  P9783  1  0.83054545  0.87995577  0.72672869  1.0
  P  P9784  1  0.94165656  0.00495577  0.72672869  1.0
  P  P9785  1  0.94165656  0.12995577  0.72672869  1.0
  P  P9786  1  0.94165656  0.25495577  0.72672869  1.0
  P  P9787  1  0.94165656  0.37995577  0.72672869  1.0
  P  P9788  1  0.94165656  0.50495577  0.72672869  1.0
  P  P9789  1  0.94165656  0.62995577  0.72672869  1.0
  P  P9790  1  0.94165656  0.75495577  0.72672869  1.0
  P  P9791  1  0.94165656  0.87995577  0.72672869  1.0
  P  P9792  1  0.10223220  0.06745577  0.66765489  1.0
  P  P9793  1  0.10223220  0.19245577  0.66765489  1.0
  P  P9794  1  0.10223220  0.31745577  0.66765489  1.0
  P  P9795  1  0.10223220  0.44245577  0.66765489  1.0
  P  P9796  1  0.10223220  0.56745577  0.66765489  1.0
  P  P9797  1  0.10223220  0.69245577  0.66765489  1.0
  P  P9798  1  0.10223220  0.81745577  0.66765489  1.0
  P  P9799  1  0.10223220  0.94245577  0.66765489  1.0
  P  P9800  1  0.21334332  0.06745577  0.66765489  1.0
  P  P9801  1  0.21334332  0.19245577  0.66765489  1.0
  P  P9802  1  0.21334332  0.31745577  0.66765489  1.0
  P  P9803  1  0.21334332  0.44245577  0.66765489  1.0
  P  P9804  1  0.21334332  0.56745577  0.66765489  1.0
  P  P9805  1  0.21334332  0.69245577  0.66765489  1.0
  P  P9806  1  0.21334332  0.81745577  0.66765489  1.0
  P  P9807  1  0.21334332  0.94245577  0.66765489  1.0
  P  P9808  1  0.32445443  0.06745577  0.66765489  1.0
  P  P9809  1  0.32445443  0.19245577  0.66765489  1.0
  P  P9810  1  0.32445443  0.31745577  0.66765489  1.0
  P  P9811  1  0.32445443  0.44245577  0.66765489  1.0
  P  P9812  1  0.32445443  0.56745577  0.66765489  1.0
  P  P9813  1  0.32445443  0.69245577  0.66765489  1.0
  P  P9814  1  0.32445443  0.81745577  0.66765489  1.0
  P  P9815  1  0.32445443  0.94245577  0.66765489  1.0
  P  P9816  1  0.43556554  0.06745577  0.66765489  1.0
  P  P9817  1  0.43556554  0.19245577  0.66765489  1.0
  P  P9818  1  0.43556554  0.31745577  0.66765489  1.0
  P  P9819  1  0.43556554  0.44245577  0.66765489  1.0
  P  P9820  1  0.43556554  0.56745577  0.66765489  1.0
  P  P9821  1  0.43556554  0.69245577  0.66765489  1.0
  P  P9822  1  0.43556554  0.81745577  0.66765489  1.0
  P  P9823  1  0.43556554  0.94245577  0.66765489  1.0
  P  P9824  1  0.54667665  0.06745577  0.66765489  1.0
  P  P9825  1  0.54667665  0.19245577  0.66765489  1.0
  P  P9826  1  0.54667665  0.31745577  0.66765489  1.0
  P  P9827  1  0.54667665  0.44245577  0.66765489  1.0
  P  P9828  1  0.54667665  0.56745577  0.66765489  1.0
  P  P9829  1  0.54667665  0.69245577  0.66765489  1.0
  P  P9830  1  0.54667665  0.81745577  0.66765489  1.0
  P  P9831  1  0.54667665  0.94245577  0.66765489  1.0
  P  P9832  1  0.65778776  0.06745577  0.66765489  1.0
  P  P9833  1  0.65778776  0.19245577  0.66765489  1.0
  P  P9834  1  0.65778776  0.31745577  0.66765489  1.0
  P  P9835  1  0.65778776  0.44245577  0.66765489  1.0
  P  P9836  1  0.65778776  0.56745577  0.66765489  1.0
  P  P9837  1  0.65778776  0.69245577  0.66765489  1.0
  P  P9838  1  0.65778776  0.81745577  0.66765489  1.0
  P  P9839  1  0.65778776  0.94245577  0.66765489  1.0
  P  P9840  1  0.76889887  0.06745577  0.66765489  1.0
  P  P9841  1  0.76889887  0.19245577  0.66765489  1.0
  P  P9842  1  0.76889887  0.31745577  0.66765489  1.0
  P  P9843  1  0.76889887  0.44245577  0.66765489  1.0
  P  P9844  1  0.76889887  0.56745577  0.66765489  1.0
  P  P9845  1  0.76889887  0.69245577  0.66765489  1.0
  P  P9846  1  0.76889887  0.81745577  0.66765489  1.0
  P  P9847  1  0.76889887  0.94245577  0.66765489  1.0
  P  P9848  1  0.88000998  0.06745577  0.66765489  1.0
  P  P9849  1  0.88000998  0.19245577  0.66765489  1.0
  P  P9850  1  0.88000998  0.31745577  0.66765489  1.0
  P  P9851  1  0.88000998  0.44245577  0.66765489  1.0
  P  P9852  1  0.88000998  0.56745577  0.66765489  1.0
  P  P9853  1  0.88000998  0.69245577  0.66765489  1.0
  P  P9854  1  0.88000998  0.81745577  0.66765489  1.0
  P  P9855  1  0.88000998  0.94245577  0.66765489  1.0
  P  P9856  1  0.99112109  0.06745577  0.66765489  1.0
  P  P9857  1  0.99112109  0.19245577  0.66765489  1.0
  P  P9858  1  0.99112109  0.31745577  0.66765489  1.0
  P  P9859  1  0.99112109  0.44245577  0.66765489  1.0
  P  P9860  1  0.99112109  0.56745577  0.66765489  1.0
  P  P9861  1  0.99112109  0.69245577  0.66765489  1.0
  P  P9862  1  0.99112109  0.81745577  0.66765489  1.0
  P  P9863  1  0.99112109  0.94245577  0.66765489  1.0
  P  P9864  1  0.04403115  0.06745577  0.76289299  1.0
  P  P9865  1  0.04403115  0.19245577  0.76289299  1.0
  P  P9866  1  0.04403115  0.31745577  0.76289299  1.0
  P  P9867  1  0.04403115  0.44245577  0.76289299  1.0
  P  P9868  1  0.04403115  0.56745577  0.76289299  1.0
  P  P9869  1  0.04403115  0.69245577  0.76289299  1.0
  P  P9870  1  0.04403115  0.81745577  0.76289299  1.0
  P  P9871  1  0.04403115  0.94245577  0.76289299  1.0
  P  P9872  1  0.15514226  0.06745577  0.76289299  1.0
  P  P9873  1  0.15514226  0.19245577  0.76289299  1.0
  P  P9874  1  0.15514226  0.31745577  0.76289299  1.0
  P  P9875  1  0.15514226  0.44245577  0.76289299  1.0
  P  P9876  1  0.15514226  0.56745577  0.76289299  1.0
  P  P9877  1  0.15514226  0.69245577  0.76289299  1.0
  P  P9878  1  0.15514226  0.81745577  0.76289299  1.0
  P  P9879  1  0.15514226  0.94245577  0.76289299  1.0
  P  P9880  1  0.26625337  0.06745577  0.76289299  1.0
  P  P9881  1  0.26625337  0.19245577  0.76289299  1.0
  P  P9882  1  0.26625337  0.31745577  0.76289299  1.0
  P  P9883  1  0.26625337  0.44245577  0.76289299  1.0
  P  P9884  1  0.26625337  0.56745577  0.76289299  1.0
  P  P9885  1  0.26625337  0.69245577  0.76289299  1.0
  P  P9886  1  0.26625337  0.81745577  0.76289299  1.0
  P  P9887  1  0.26625337  0.94245577  0.76289299  1.0
  P  P9888  1  0.37736448  0.06745577  0.76289299  1.0
  P  P9889  1  0.37736448  0.19245577  0.76289299  1.0
  P  P9890  1  0.37736448  0.31745577  0.76289299  1.0
  P  P9891  1  0.37736448  0.44245577  0.76289299  1.0
  P  P9892  1  0.37736448  0.56745577  0.76289299  1.0
  P  P9893  1  0.37736448  0.69245577  0.76289299  1.0
  P  P9894  1  0.37736448  0.81745577  0.76289299  1.0
  P  P9895  1  0.37736448  0.94245577  0.76289299  1.0
  P  P9896  1  0.48847559  0.06745577  0.76289299  1.0
  P  P9897  1  0.48847559  0.19245577  0.76289299  1.0
  P  P9898  1  0.48847559  0.31745577  0.76289299  1.0
  P  P9899  1  0.48847559  0.44245577  0.76289299  1.0
  P  P9900  1  0.48847559  0.56745577  0.76289299  1.0
  P  P9901  1  0.48847559  0.69245577  0.76289299  1.0
  P  P9902  1  0.48847559  0.81745577  0.76289299  1.0
  P  P9903  1  0.48847559  0.94245577  0.76289299  1.0
  P  P9904  1  0.59958670  0.06745577  0.76289299  1.0
  P  P9905  1  0.59958670  0.19245577  0.76289299  1.0
  P  P9906  1  0.59958670  0.31745577  0.76289299  1.0
  P  P9907  1  0.59958670  0.44245577  0.76289299  1.0
  P  P9908  1  0.59958670  0.56745577  0.76289299  1.0
  P  P9909  1  0.59958670  0.69245577  0.76289299  1.0
  P  P9910  1  0.59958670  0.81745577  0.76289299  1.0
  P  P9911  1  0.59958670  0.94245577  0.76289299  1.0
  P  P9912  1  0.71069781  0.06745577  0.76289299  1.0
  P  P9913  1  0.71069781  0.19245577  0.76289299  1.0
  P  P9914  1  0.71069781  0.31745577  0.76289299  1.0
  P  P9915  1  0.71069781  0.44245577  0.76289299  1.0
  P  P9916  1  0.71069781  0.56745577  0.76289299  1.0
  P  P9917  1  0.71069781  0.69245577  0.76289299  1.0
  P  P9918  1  0.71069781  0.81745577  0.76289299  1.0
  P  P9919  1  0.71069781  0.94245577  0.76289299  1.0
  P  P9920  1  0.82180892  0.06745577  0.76289299  1.0
  P  P9921  1  0.82180892  0.19245577  0.76289299  1.0
  P  P9922  1  0.82180892  0.31745577  0.76289299  1.0
  P  P9923  1  0.82180892  0.44245577  0.76289299  1.0
  P  P9924  1  0.82180892  0.56745577  0.76289299  1.0
  P  P9925  1  0.82180892  0.69245577  0.76289299  1.0
  P  P9926  1  0.82180892  0.81745577  0.76289299  1.0
  P  P9927  1  0.82180892  0.94245577  0.76289299  1.0
  P  P9928  1  0.93292003  0.06745577  0.76289299  1.0
  P  P9929  1  0.93292003  0.19245577  0.76289299  1.0
  P  P9930  1  0.93292003  0.31745577  0.76289299  1.0
  P  P9931  1  0.93292003  0.44245577  0.76289299  1.0
  P  P9932  1  0.93292003  0.56745577  0.76289299  1.0
  P  P9933  1  0.93292003  0.69245577  0.76289299  1.0
  P  P9934  1  0.93292003  0.81745577  0.76289299  1.0
  P  P9935  1  0.93292003  0.94245577  0.76289299  1.0
  P  P9936  1  0.01757612  0.06745577  0.71527394  1.0
  P  P9937  1  0.01757612  0.19245577  0.71527394  1.0
  P  P9938  1  0.01757612  0.31745577  0.71527394  1.0
  P  P9939  1  0.01757612  0.44245577  0.71527394  1.0
  P  P9940  1  0.01757612  0.56745577  0.71527394  1.0
  P  P9941  1  0.01757612  0.69245577  0.71527394  1.0
  P  P9942  1  0.01757612  0.81745577  0.71527394  1.0
  P  P9943  1  0.01757612  0.94245577  0.71527394  1.0
  P  P9944  1  0.12868723  0.06745577  0.71527394  1.0
  P  P9945  1  0.12868723  0.19245577  0.71527394  1.0
  P  P9946  1  0.12868723  0.31745577  0.71527394  1.0
  P  P9947  1  0.12868723  0.44245577  0.71527394  1.0
  P  P9948  1  0.12868723  0.56745577  0.71527394  1.0
  P  P9949  1  0.12868723  0.69245577  0.71527394  1.0
  P  P9950  1  0.12868723  0.81745577  0.71527394  1.0
  P  P9951  1  0.12868723  0.94245577  0.71527394  1.0
  P  P9952  1  0.23979834  0.06745577  0.71527394  1.0
  P  P9953  1  0.23979834  0.19245577  0.71527394  1.0
  P  P9954  1  0.23979834  0.31745577  0.71527394  1.0
  P  P9955  1  0.23979834  0.44245577  0.71527394  1.0
  P  P9956  1  0.23979834  0.56745577  0.71527394  1.0
  P  P9957  1  0.23979834  0.69245577  0.71527394  1.0
  P  P9958  1  0.23979834  0.81745577  0.71527394  1.0
  P  P9959  1  0.23979834  0.94245577  0.71527394  1.0
  P  P9960  1  0.35090945  0.06745577  0.71527394  1.0
  P  P9961  1  0.35090945  0.19245577  0.71527394  1.0
  P  P9962  1  0.35090945  0.31745577  0.71527394  1.0
  P  P9963  1  0.35090945  0.44245577  0.71527394  1.0
  P  P9964  1  0.35090945  0.56745577  0.71527394  1.0
  P  P9965  1  0.35090945  0.69245577  0.71527394  1.0
  P  P9966  1  0.35090945  0.81745577  0.71527394  1.0
  P  P9967  1  0.35090945  0.94245577  0.71527394  1.0
  P  P9968  1  0.46202056  0.06745577  0.71527394  1.0
  P  P9969  1  0.46202056  0.19245577  0.71527394  1.0
  P  P9970  1  0.46202056  0.31745577  0.71527394  1.0
  P  P9971  1  0.46202056  0.44245577  0.71527394  1.0
  P  P9972  1  0.46202056  0.56745577  0.71527394  1.0
  P  P9973  1  0.46202056  0.69245577  0.71527394  1.0
  P  P9974  1  0.46202056  0.81745577  0.71527394  1.0
  P  P9975  1  0.46202056  0.94245577  0.71527394  1.0
  P  P9976  1  0.57313167  0.06745577  0.71527394  1.0
  P  P9977  1  0.57313167  0.19245577  0.71527394  1.0
  P  P9978  1  0.57313167  0.31745577  0.71527394  1.0
  P  P9979  1  0.57313167  0.44245577  0.71527394  1.0
  P  P9980  1  0.57313167  0.56745577  0.71527394  1.0
  P  P9981  1  0.57313167  0.69245577  0.71527394  1.0
  P  P9982  1  0.57313167  0.81745577  0.71527394  1.0
  P  P9983  1  0.57313167  0.94245577  0.71527394  1.0
  P  P9984  1  0.68424279  0.06745577  0.71527394  1.0
  P  P9985  1  0.68424279  0.19245577  0.71527394  1.0
  P  P9986  1  0.68424279  0.31745577  0.71527394  1.0
  P  P9987  1  0.68424279  0.44245577  0.71527394  1.0
  P  P9988  1  0.68424279  0.56745577  0.71527394  1.0
  P  P9989  1  0.68424279  0.69245577  0.71527394  1.0
  P  P9990  1  0.68424279  0.81745577  0.71527394  1.0
  P  P9991  1  0.68424279  0.94245577  0.71527394  1.0
  P  P9992  1  0.79535390  0.06745577  0.71527394  1.0
  P  P9993  1  0.79535390  0.19245577  0.71527394  1.0
  P  P9994  1  0.79535390  0.31745577  0.71527394  1.0
  P  P9995  1  0.79535390  0.44245577  0.71527394  1.0
  P  P9996  1  0.79535390  0.56745577  0.71527394  1.0
  P  P9997  1  0.79535390  0.69245577  0.71527394  1.0
  P  P9998  1  0.79535390  0.81745577  0.71527394  1.0
  P  P9999  1  0.79535390  0.94245577  0.71527394  1.0
  P  P10000  1  0.90646501  0.06745577  0.71527394  1.0
  P  P10001  1  0.90646501  0.19245577  0.71527394  1.0
  P  P10002  1  0.90646501  0.31745577  0.71527394  1.0
  P  P10003  1  0.90646501  0.44245577  0.71527394  1.0
  P  P10004  1  0.90646501  0.56745577  0.71527394  1.0
  P  P10005  1  0.90646501  0.69245577  0.71527394  1.0
  P  P10006  1  0.90646501  0.81745577  0.71527394  1.0
  P  P10007  1  0.90646501  0.94245577  0.71527394  1.0
  P  P10008  1  0.09509571  0.05754423  0.70291917  1.0
  P  P10009  1  0.09509571  0.18254423  0.70291917  1.0
  P  P10010  1  0.09509571  0.30754423  0.70291917  1.0
  P  P10011  1  0.09509571  0.43254423  0.70291917  1.0
  P  P10012  1  0.09509571  0.55754423  0.70291917  1.0
  P  P10013  1  0.09509571  0.68254423  0.70291917  1.0
  P  P10014  1  0.09509571  0.80754423  0.70291917  1.0
  P  P10015  1  0.09509571  0.93254423  0.70291917  1.0
  P  P10016  1  0.20620683  0.05754423  0.70291917  1.0
  P  P10017  1  0.20620683  0.18254423  0.70291917  1.0
  P  P10018  1  0.20620683  0.30754423  0.70291917  1.0
  P  P10019  1  0.20620683  0.43254423  0.70291917  1.0
  P  P10020  1  0.20620683  0.55754423  0.70291917  1.0
  P  P10021  1  0.20620683  0.68254423  0.70291917  1.0
  P  P10022  1  0.20620683  0.80754423  0.70291917  1.0
  P  P10023  1  0.20620683  0.93254423  0.70291917  1.0
  P  P10024  1  0.31731794  0.05754423  0.70291917  1.0
  P  P10025  1  0.31731794  0.18254423  0.70291917  1.0
  P  P10026  1  0.31731794  0.30754423  0.70291917  1.0
  P  P10027  1  0.31731794  0.43254423  0.70291917  1.0
  P  P10028  1  0.31731794  0.55754423  0.70291917  1.0
  P  P10029  1  0.31731794  0.68254423  0.70291917  1.0
  P  P10030  1  0.31731794  0.80754423  0.70291917  1.0
  P  P10031  1  0.31731794  0.93254423  0.70291917  1.0
  P  P10032  1  0.42842905  0.05754423  0.70291917  1.0
  P  P10033  1  0.42842905  0.18254423  0.70291917  1.0
  P  P10034  1  0.42842905  0.30754423  0.70291917  1.0
  P  P10035  1  0.42842905  0.43254423  0.70291917  1.0
  P  P10036  1  0.42842905  0.55754423  0.70291917  1.0
  P  P10037  1  0.42842905  0.68254423  0.70291917  1.0
  P  P10038  1  0.42842905  0.80754423  0.70291917  1.0
  P  P10039  1  0.42842905  0.93254423  0.70291917  1.0
  P  P10040  1  0.53954016  0.05754423  0.70291917  1.0
  P  P10041  1  0.53954016  0.18254423  0.70291917  1.0
  P  P10042  1  0.53954016  0.30754423  0.70291917  1.0
  P  P10043  1  0.53954016  0.43254423  0.70291917  1.0
  P  P10044  1  0.53954016  0.55754423  0.70291917  1.0
  P  P10045  1  0.53954016  0.68254423  0.70291917  1.0
  P  P10046  1  0.53954016  0.80754423  0.70291917  1.0
  P  P10047  1  0.53954016  0.93254423  0.70291917  1.0
  P  P10048  1  0.65065127  0.05754423  0.70291917  1.0
  P  P10049  1  0.65065127  0.18254423  0.70291917  1.0
  P  P10050  1  0.65065127  0.30754423  0.70291917  1.0
  P  P10051  1  0.65065127  0.43254423  0.70291917  1.0
  P  P10052  1  0.65065127  0.55754423  0.70291917  1.0
  P  P10053  1  0.65065127  0.68254423  0.70291917  1.0
  P  P10054  1  0.65065127  0.80754423  0.70291917  1.0
  P  P10055  1  0.65065127  0.93254423  0.70291917  1.0
  P  P10056  1  0.76176238  0.05754423  0.70291917  1.0
  P  P10057  1  0.76176238  0.18254423  0.70291917  1.0
  P  P10058  1  0.76176238  0.30754423  0.70291917  1.0
  P  P10059  1  0.76176238  0.43254423  0.70291917  1.0
  P  P10060  1  0.76176238  0.55754423  0.70291917  1.0
  P  P10061  1  0.76176238  0.68254423  0.70291917  1.0
  P  P10062  1  0.76176238  0.80754423  0.70291917  1.0
  P  P10063  1  0.76176238  0.93254423  0.70291917  1.0
  P  P10064  1  0.87287349  0.05754423  0.70291917  1.0
  P  P10065  1  0.87287349  0.18254423  0.70291917  1.0
  P  P10066  1  0.87287349  0.30754423  0.70291917  1.0
  P  P10067  1  0.87287349  0.43254423  0.70291917  1.0
  P  P10068  1  0.87287349  0.55754423  0.70291917  1.0
  P  P10069  1  0.87287349  0.68254423  0.70291917  1.0
  P  P10070  1  0.87287349  0.80754423  0.70291917  1.0
  P  P10071  1  0.87287349  0.93254423  0.70291917  1.0
  P  P10072  1  0.98398460  0.05754423  0.70291917  1.0
  P  P10073  1  0.98398460  0.18254423  0.70291917  1.0
  P  P10074  1  0.98398460  0.30754423  0.70291917  1.0
  P  P10075  1  0.98398460  0.43254423  0.70291917  1.0
  P  P10076  1  0.98398460  0.55754423  0.70291917  1.0
  P  P10077  1  0.98398460  0.68254423  0.70291917  1.0
  P  P10078  1  0.98398460  0.80754423  0.70291917  1.0
  P  P10079  1  0.98398460  0.93254423  0.70291917  1.0
  P  P10080  1  0.06864069  0.05754423  0.65530012  1.0
  P  P10081  1  0.06864069  0.18254423  0.65530012  1.0
  P  P10082  1  0.06864069  0.30754423  0.65530012  1.0
  P  P10083  1  0.06864069  0.43254423  0.65530012  1.0
  P  P10084  1  0.06864069  0.55754423  0.65530012  1.0
  P  P10085  1  0.06864069  0.68254423  0.65530012  1.0
  P  P10086  1  0.06864069  0.80754423  0.65530012  1.0
  P  P10087  1  0.06864069  0.93254423  0.65530012  1.0
  P  P10088  1  0.17975180  0.05754423  0.65530012  1.0
  P  P10089  1  0.17975180  0.18254423  0.65530012  1.0
  P  P10090  1  0.17975180  0.30754423  0.65530012  1.0
  P  P10091  1  0.17975180  0.43254423  0.65530012  1.0
  P  P10092  1  0.17975180  0.55754423  0.65530012  1.0
  P  P10093  1  0.17975180  0.68254423  0.65530012  1.0
  P  P10094  1  0.17975180  0.80754423  0.65530012  1.0
  P  P10095  1  0.17975180  0.93254423  0.65530012  1.0
  P  P10096  1  0.29086291  0.05754423  0.65530012  1.0
  P  P10097  1  0.29086291  0.18254423  0.65530012  1.0
  P  P10098  1  0.29086291  0.30754423  0.65530012  1.0
  P  P10099  1  0.29086291  0.43254423  0.65530012  1.0
  P  P10100  1  0.29086291  0.55754423  0.65530012  1.0
  P  P10101  1  0.29086291  0.68254423  0.65530012  1.0
  P  P10102  1  0.29086291  0.80754423  0.65530012  1.0
  P  P10103  1  0.29086291  0.93254423  0.65530012  1.0
  P  P10104  1  0.40197402  0.05754423  0.65530012  1.0
  P  P10105  1  0.40197402  0.18254423  0.65530012  1.0
  P  P10106  1  0.40197402  0.30754423  0.65530012  1.0
  P  P10107  1  0.40197402  0.43254423  0.65530012  1.0
  P  P10108  1  0.40197402  0.55754423  0.65530012  1.0
  P  P10109  1  0.40197402  0.68254423  0.65530012  1.0
  P  P10110  1  0.40197402  0.80754423  0.65530012  1.0
  P  P10111  1  0.40197402  0.93254423  0.65530012  1.0
  P  P10112  1  0.51308513  0.05754423  0.65530012  1.0
  P  P10113  1  0.51308513  0.18254423  0.65530012  1.0
  P  P10114  1  0.51308513  0.30754423  0.65530012  1.0
  P  P10115  1  0.51308513  0.43254423  0.65530012  1.0
  P  P10116  1  0.51308513  0.55754423  0.65530012  1.0
  P  P10117  1  0.51308513  0.68254423  0.65530012  1.0
  P  P10118  1  0.51308513  0.80754423  0.65530012  1.0
  P  P10119  1  0.51308513  0.93254423  0.65530012  1.0
  P  P10120  1  0.62419624  0.05754423  0.65530012  1.0
  P  P10121  1  0.62419624  0.18254423  0.65530012  1.0
  P  P10122  1  0.62419624  0.30754423  0.65530012  1.0
  P  P10123  1  0.62419624  0.43254423  0.65530012  1.0
  P  P10124  1  0.62419624  0.55754423  0.65530012  1.0
  P  P10125  1  0.62419624  0.68254423  0.65530012  1.0
  P  P10126  1  0.62419624  0.80754423  0.65530012  1.0
  P  P10127  1  0.62419624  0.93254423  0.65530012  1.0
  P  P10128  1  0.73530735  0.05754423  0.65530012  1.0
  P  P10129  1  0.73530735  0.18254423  0.65530012  1.0
  P  P10130  1  0.73530735  0.30754423  0.65530012  1.0
  P  P10131  1  0.73530735  0.43254423  0.65530012  1.0
  P  P10132  1  0.73530735  0.55754423  0.65530012  1.0
  P  P10133  1  0.73530735  0.68254423  0.65530012  1.0
  P  P10134  1  0.73530735  0.80754423  0.65530012  1.0
  P  P10135  1  0.73530735  0.93254423  0.65530012  1.0
  P  P10136  1  0.84641847  0.05754423  0.65530012  1.0
  P  P10137  1  0.84641847  0.18254423  0.65530012  1.0
  P  P10138  1  0.84641847  0.30754423  0.65530012  1.0
  P  P10139  1  0.84641847  0.43254423  0.65530012  1.0
  P  P10140  1  0.84641847  0.55754423  0.65530012  1.0
  P  P10141  1  0.84641847  0.68254423  0.65530012  1.0
  P  P10142  1  0.84641847  0.80754423  0.65530012  1.0
  P  P10143  1  0.84641847  0.93254423  0.65530012  1.0
  P  P10144  1  0.95752958  0.05754423  0.65530012  1.0
  P  P10145  1  0.95752958  0.18254423  0.65530012  1.0
  P  P10146  1  0.95752958  0.30754423  0.65530012  1.0
  P  P10147  1  0.95752958  0.43254423  0.65530012  1.0
  P  P10148  1  0.95752958  0.55754423  0.65530012  1.0
  P  P10149  1  0.95752958  0.68254423  0.65530012  1.0
  P  P10150  1  0.95752958  0.80754423  0.65530012  1.0
  P  P10151  1  0.95752958  0.93254423  0.65530012  1.0
  P  P10152  1  0.01043963  0.05754423  0.75053821  1.0
  P  P10153  1  0.01043963  0.18254423  0.75053821  1.0
  P  P10154  1  0.01043963  0.30754423  0.75053821  1.0
  P  P10155  1  0.01043963  0.43254423  0.75053821  1.0
  P  P10156  1  0.01043963  0.55754423  0.75053821  1.0
  P  P10157  1  0.01043963  0.68254423  0.75053821  1.0
  P  P10158  1  0.01043963  0.80754423  0.75053821  1.0
  P  P10159  1  0.01043963  0.93254423  0.75053821  1.0
  P  P10160  1  0.12155074  0.05754423  0.75053821  1.0
  P  P10161  1  0.12155074  0.18254423  0.75053821  1.0
  P  P10162  1  0.12155074  0.30754423  0.75053821  1.0
  P  P10163  1  0.12155074  0.43254423  0.75053821  1.0
  P  P10164  1  0.12155074  0.55754423  0.75053821  1.0
  P  P10165  1  0.12155074  0.68254423  0.75053821  1.0
  P  P10166  1  0.12155074  0.80754423  0.75053821  1.0
  P  P10167  1  0.12155074  0.93254423  0.75053821  1.0
  P  P10168  1  0.23266185  0.05754423  0.75053821  1.0
  P  P10169  1  0.23266185  0.18254423  0.75053821  1.0
  P  P10170  1  0.23266185  0.30754423  0.75053821  1.0
  P  P10171  1  0.23266185  0.43254423  0.75053821  1.0
  P  P10172  1  0.23266185  0.55754423  0.75053821  1.0
  P  P10173  1  0.23266185  0.68254423  0.75053821  1.0
  P  P10174  1  0.23266185  0.80754423  0.75053821  1.0
  P  P10175  1  0.23266185  0.93254423  0.75053821  1.0
  P  P10176  1  0.34377296  0.05754423  0.75053821  1.0
  P  P10177  1  0.34377296  0.18254423  0.75053821  1.0
  P  P10178  1  0.34377296  0.30754423  0.75053821  1.0
  P  P10179  1  0.34377296  0.43254423  0.75053821  1.0
  P  P10180  1  0.34377296  0.55754423  0.75053821  1.0
  P  P10181  1  0.34377296  0.68254423  0.75053821  1.0
  P  P10182  1  0.34377296  0.80754423  0.75053821  1.0
  P  P10183  1  0.34377296  0.93254423  0.75053821  1.0
  P  P10184  1  0.45488407  0.05754423  0.75053821  1.0
  P  P10185  1  0.45488407  0.18254423  0.75053821  1.0
  P  P10186  1  0.45488407  0.30754423  0.75053821  1.0
  P  P10187  1  0.45488407  0.43254423  0.75053821  1.0
  P  P10188  1  0.45488407  0.55754423  0.75053821  1.0
  P  P10189  1  0.45488407  0.68254423  0.75053821  1.0
  P  P10190  1  0.45488407  0.80754423  0.75053821  1.0
  P  P10191  1  0.45488407  0.93254423  0.75053821  1.0
  P  P10192  1  0.56599519  0.05754423  0.75053821  1.0
  P  P10193  1  0.56599519  0.18254423  0.75053821  1.0
  P  P10194  1  0.56599519  0.30754423  0.75053821  1.0
  P  P10195  1  0.56599519  0.43254423  0.75053821  1.0
  P  P10196  1  0.56599519  0.55754423  0.75053821  1.0
  P  P10197  1  0.56599519  0.68254423  0.75053821  1.0
  P  P10198  1  0.56599519  0.80754423  0.75053821  1.0
  P  P10199  1  0.56599519  0.93254423  0.75053821  1.0
  P  P10200  1  0.67710630  0.05754423  0.75053821  1.0
  P  P10201  1  0.67710630  0.18254423  0.75053821  1.0
  P  P10202  1  0.67710630  0.30754423  0.75053821  1.0
  P  P10203  1  0.67710630  0.43254423  0.75053821  1.0
  P  P10204  1  0.67710630  0.55754423  0.75053821  1.0
  P  P10205  1  0.67710630  0.68254423  0.75053821  1.0
  P  P10206  1  0.67710630  0.80754423  0.75053821  1.0
  P  P10207  1  0.67710630  0.93254423  0.75053821  1.0
  P  P10208  1  0.78821741  0.05754423  0.75053821  1.0
  P  P10209  1  0.78821741  0.18254423  0.75053821  1.0
  P  P10210  1  0.78821741  0.30754423  0.75053821  1.0
  P  P10211  1  0.78821741  0.43254423  0.75053821  1.0
  P  P10212  1  0.78821741  0.55754423  0.75053821  1.0
  P  P10213  1  0.78821741  0.68254423  0.75053821  1.0
  P  P10214  1  0.78821741  0.80754423  0.75053821  1.0
  P  P10215  1  0.78821741  0.93254423  0.75053821  1.0
  P  P10216  1  0.89932852  0.05754423  0.75053821  1.0
  P  P10217  1  0.89932852  0.18254423  0.75053821  1.0
  P  P10218  1  0.89932852  0.30754423  0.75053821  1.0
  P  P10219  1  0.89932852  0.43254423  0.75053821  1.0
  P  P10220  1  0.89932852  0.55754423  0.75053821  1.0
  P  P10221  1  0.89932852  0.68254423  0.75053821  1.0
  P  P10222  1  0.89932852  0.80754423  0.75053821  1.0
  P  P10223  1  0.89932852  0.93254423  0.75053821  1.0
