# generated using pymatgen
data_Ti22P45
_symmetry_space_group_name_H-M   'P 1'
_cell_length_a   63.18331892
_cell_length_b   62.42379473
_cell_length_c   58.35540207
_cell_angle_alpha   86.52173603
_cell_angle_beta   87.77483463
_cell_angle_gamma   79.68223458
_symmetry_Int_Tables_number   1
_chemical_formula_structural   Ti22P45
_chemical_formula_sum   'Ti2772 P5670'
_cell_volume   225931.43737582
_cell_formula_units_Z   126
loop_
 _symmetry_equiv_pos_site_id
 _symmetry_equiv_pos_as_xyz
  1  'x, y, z'
loop_
 _atom_site_type_symbol
 _atom_site_label
 _atom_site_symmetry_multiplicity
 _atom_site_fract_x
 _atom_site_fract_y
 _atom_site_fract_z
 _atom_site_occupancy
  Ti  Ti0  1  0.06067996  0.10820600  0.25818497  1.0
  Ti  Ti1  1  0.06067996  0.25106314  0.25818497  1.0
  Ti  Ti2  1  0.06067996  0.39392028  0.25818497  1.0
  Ti  Ti3  1  0.06067996  0.53677742  0.25818497  1.0
  Ti  Ti4  1  0.06067996  0.67963457  0.25818497  1.0
  Ti  Ti5  1  0.06067996  0.82249171  0.25818497  1.0
  Ti  Ti6  1  0.06067996  0.96534885  0.25818497  1.0
  Ti  Ti7  1  0.17179107  0.10820600  0.25818497  1.0
  Ti  Ti8  1  0.17179107  0.25106314  0.25818497  1.0
  Ti  Ti9  1  0.17179107  0.39392028  0.25818497  1.0
  Ti  Ti10  1  0.17179107  0.53677742  0.25818497  1.0
  Ti  Ti11  1  0.17179107  0.67963457  0.25818497  1.0
  Ti  Ti12  1  0.17179107  0.82249171  0.25818497  1.0
  Ti  Ti13  1  0.17179107  0.96534885  0.25818497  1.0
  Ti  Ti14  1  0.28290218  0.10820600  0.25818497  1.0
  Ti  Ti15  1  0.28290218  0.25106314  0.25818497  1.0
  Ti  Ti16  1  0.28290218  0.39392028  0.25818497  1.0
  Ti  Ti17  1  0.28290218  0.53677742  0.25818497  1.0
  Ti  Ti18  1  0.28290218  0.67963457  0.25818497  1.0
  Ti  Ti19  1  0.28290218  0.82249171  0.25818497  1.0
  Ti  Ti20  1  0.28290218  0.96534885  0.25818497  1.0
  Ti  Ti21  1  0.39401329  0.10820600  0.25818497  1.0
  Ti  Ti22  1  0.39401329  0.25106314  0.25818497  1.0
  Ti  Ti23  1  0.39401329  0.39392028  0.25818497  1.0
  Ti  Ti24  1  0.39401329  0.53677742  0.25818497  1.0
  Ti  Ti25  1  0.39401329  0.67963457  0.25818497  1.0
  Ti  Ti26  1  0.39401329  0.82249171  0.25818497  1.0
  Ti  Ti27  1  0.39401329  0.96534885  0.25818497  1.0
  Ti  Ti28  1  0.50512440  0.10820600  0.25818497  1.0
  Ti  Ti29  1  0.50512440  0.25106314  0.25818497  1.0
  Ti  Ti30  1  0.50512440  0.39392028  0.25818497  1.0
  Ti  Ti31  1  0.50512440  0.53677742  0.25818497  1.0
  Ti  Ti32  1  0.50512440  0.67963457  0.25818497  1.0
  Ti  Ti33  1  0.50512440  0.82249171  0.25818497  1.0
  Ti  Ti34  1  0.50512440  0.96534885  0.25818497  1.0
  Ti  Ti35  1  0.61623552  0.10820600  0.25818497  1.0
  Ti  Ti36  1  0.61623552  0.25106314  0.25818497  1.0
  Ti  Ti37  1  0.61623552  0.39392028  0.25818497  1.0
  Ti  Ti38  1  0.61623552  0.53677742  0.25818497  1.0
  Ti  Ti39  1  0.61623552  0.67963457  0.25818497  1.0
  Ti  Ti40  1  0.61623552  0.82249171  0.25818497  1.0
  Ti  Ti41  1  0.61623552  0.96534885  0.25818497  1.0
  Ti  Ti42  1  0.72734663  0.10820600  0.25818497  1.0
  Ti  Ti43  1  0.72734663  0.25106314  0.25818497  1.0
  Ti  Ti44  1  0.72734663  0.39392028  0.25818497  1.0
  Ti  Ti45  1  0.72734663  0.53677742  0.25818497  1.0
  Ti  Ti46  1  0.72734663  0.67963457  0.25818497  1.0
  Ti  Ti47  1  0.72734663  0.82249171  0.25818497  1.0
  Ti  Ti48  1  0.72734663  0.96534885  0.25818497  1.0
  Ti  Ti49  1  0.83845774  0.10820600  0.25818497  1.0
  Ti  Ti50  1  0.83845774  0.25106314  0.25818497  1.0
  Ti  Ti51  1  0.83845774  0.39392028  0.25818497  1.0
  Ti  Ti52  1  0.83845774  0.53677742  0.25818497  1.0
  Ti  Ti53  1  0.83845774  0.67963457  0.25818497  1.0
  Ti  Ti54  1  0.83845774  0.82249171  0.25818497  1.0
  Ti  Ti55  1  0.83845774  0.96534885  0.25818497  1.0
  Ti  Ti56  1  0.94956885  0.10820600  0.25818497  1.0
  Ti  Ti57  1  0.94956885  0.25106314  0.25818497  1.0
  Ti  Ti58  1  0.94956885  0.39392028  0.25818497  1.0
  Ti  Ti59  1  0.94956885  0.53677742  0.25818497  1.0
  Ti  Ti60  1  0.94956885  0.67963457  0.25818497  1.0
  Ti  Ti61  1  0.94956885  0.82249171  0.25818497  1.0
  Ti  Ti62  1  0.94956885  0.96534885  0.25818497  1.0
  Ti  Ti63  1  0.08184398  0.12181144  0.30580402  1.0
  Ti  Ti64  1  0.08184398  0.26466858  0.30580402  1.0
  Ti  Ti65  1  0.08184398  0.40752572  0.30580402  1.0
  Ti  Ti66  1  0.08184398  0.55038287  0.30580402  1.0
  Ti  Ti67  1  0.08184398  0.69324001  0.30580402  1.0
  Ti  Ti68  1  0.08184398  0.83609715  0.30580402  1.0
  Ti  Ti69  1  0.08184398  0.97895429  0.30580402  1.0
  Ti  Ti70  1  0.19295509  0.12181144  0.30580402  1.0
  Ti  Ti71  1  0.19295509  0.26466858  0.30580402  1.0
  Ti  Ti72  1  0.19295509  0.40752572  0.30580402  1.0
  Ti  Ti73  1  0.19295509  0.55038287  0.30580402  1.0
  Ti  Ti74  1  0.19295509  0.69324001  0.30580402  1.0
  Ti  Ti75  1  0.19295509  0.83609715  0.30580402  1.0
  Ti  Ti76  1  0.19295509  0.97895429  0.30580402  1.0
  Ti  Ti77  1  0.30406620  0.12181144  0.30580402  1.0
  Ti  Ti78  1  0.30406620  0.26466858  0.30580402  1.0
  Ti  Ti79  1  0.30406620  0.40752572  0.30580402  1.0
  Ti  Ti80  1  0.30406620  0.55038287  0.30580402  1.0
  Ti  Ti81  1  0.30406620  0.69324001  0.30580402  1.0
  Ti  Ti82  1  0.30406620  0.83609715  0.30580402  1.0
  Ti  Ti83  1  0.30406620  0.97895429  0.30580402  1.0
  Ti  Ti84  1  0.41517731  0.12181144  0.30580402  1.0
  Ti  Ti85  1  0.41517731  0.26466858  0.30580402  1.0
  Ti  Ti86  1  0.41517731  0.40752572  0.30580402  1.0
  Ti  Ti87  1  0.41517731  0.55038287  0.30580402  1.0
  Ti  Ti88  1  0.41517731  0.69324001  0.30580402  1.0
  Ti  Ti89  1  0.41517731  0.83609715  0.30580402  1.0
  Ti  Ti90  1  0.41517731  0.97895429  0.30580402  1.0
  Ti  Ti91  1  0.52628843  0.12181144  0.30580402  1.0
  Ti  Ti92  1  0.52628843  0.26466858  0.30580402  1.0
  Ti  Ti93  1  0.52628843  0.40752572  0.30580402  1.0
  Ti  Ti94  1  0.52628843  0.55038287  0.30580402  1.0
  Ti  Ti95  1  0.52628843  0.69324001  0.30580402  1.0
  Ti  Ti96  1  0.52628843  0.83609715  0.30580402  1.0
  Ti  Ti97  1  0.52628843  0.97895429  0.30580402  1.0
  Ti  Ti98  1  0.63739954  0.12181144  0.30580402  1.0
  Ti  Ti99  1  0.63739954  0.26466858  0.30580402  1.0
  Ti  Ti100  1  0.63739954  0.40752572  0.30580402  1.0
  Ti  Ti101  1  0.63739954  0.55038287  0.30580402  1.0
  Ti  Ti102  1  0.63739954  0.69324001  0.30580402  1.0
  Ti  Ti103  1  0.63739954  0.83609715  0.30580402  1.0
  Ti  Ti104  1  0.63739954  0.97895429  0.30580402  1.0
  Ti  Ti105  1  0.74851065  0.12181144  0.30580402  1.0
  Ti  Ti106  1  0.74851065  0.26466858  0.30580402  1.0
  Ti  Ti107  1  0.74851065  0.40752572  0.30580402  1.0
  Ti  Ti108  1  0.74851065  0.55038287  0.30580402  1.0
  Ti  Ti109  1  0.74851065  0.69324001  0.30580402  1.0
  Ti  Ti110  1  0.74851065  0.83609715  0.30580402  1.0
  Ti  Ti111  1  0.74851065  0.97895429  0.30580402  1.0
  Ti  Ti112  1  0.85962176  0.12181144  0.30580402  1.0
  Ti  Ti113  1  0.85962176  0.26466858  0.30580402  1.0
  Ti  Ti114  1  0.85962176  0.40752572  0.30580402  1.0
  Ti  Ti115  1  0.85962176  0.55038287  0.30580402  1.0
  Ti  Ti116  1  0.85962176  0.69324001  0.30580402  1.0
  Ti  Ti117  1  0.85962176  0.83609715  0.30580402  1.0
  Ti  Ti118  1  0.85962176  0.97895429  0.30580402  1.0
  Ti  Ti119  1  0.97073287  0.12181144  0.30580402  1.0
  Ti  Ti120  1  0.97073287  0.26466858  0.30580402  1.0
  Ti  Ti121  1  0.97073287  0.40752572  0.30580402  1.0
  Ti  Ti122  1  0.97073287  0.55038287  0.30580402  1.0
  Ti  Ti123  1  0.97073287  0.69324001  0.30580402  1.0
  Ti  Ti124  1  0.97073287  0.83609715  0.30580402  1.0
  Ti  Ti125  1  0.97073287  0.97895429  0.30580402  1.0
  Ti  Ti126  1  0.10300800  0.13541688  0.35342307  1.0
  Ti  Ti127  1  0.10300800  0.27827402  0.35342307  1.0
  Ti  Ti128  1  0.10300800  0.42113117  0.35342307  1.0
  Ti  Ti129  1  0.10300800  0.56398831  0.35342307  1.0
  Ti  Ti130  1  0.10300800  0.70684545  0.35342307  1.0
  Ti  Ti131  1  0.10300800  0.84970259  0.35342307  1.0
  Ti  Ti132  1  0.10300800  0.99255974  0.35342307  1.0
  Ti  Ti133  1  0.21411911  0.13541688  0.35342307  1.0
  Ti  Ti134  1  0.21411911  0.27827402  0.35342307  1.0
  Ti  Ti135  1  0.21411911  0.42113117  0.35342307  1.0
  Ti  Ti136  1  0.21411911  0.56398831  0.35342307  1.0
  Ti  Ti137  1  0.21411911  0.70684545  0.35342307  1.0
  Ti  Ti138  1  0.21411911  0.84970259  0.35342307  1.0
  Ti  Ti139  1  0.21411911  0.99255974  0.35342307  1.0
  Ti  Ti140  1  0.32523022  0.13541688  0.35342307  1.0
  Ti  Ti141  1  0.32523022  0.27827402  0.35342307  1.0
  Ti  Ti142  1  0.32523022  0.42113117  0.35342307  1.0
  Ti  Ti143  1  0.32523022  0.56398831  0.35342307  1.0
  Ti  Ti144  1  0.32523022  0.70684545  0.35342307  1.0
  Ti  Ti145  1  0.32523022  0.84970259  0.35342307  1.0
  Ti  Ti146  1  0.32523022  0.99255974  0.35342307  1.0
  Ti  Ti147  1  0.43634134  0.13541688  0.35342307  1.0
  Ti  Ti148  1  0.43634134  0.27827402  0.35342307  1.0
  Ti  Ti149  1  0.43634134  0.42113117  0.35342307  1.0
  Ti  Ti150  1  0.43634134  0.56398831  0.35342307  1.0
  Ti  Ti151  1  0.43634134  0.70684545  0.35342307  1.0
  Ti  Ti152  1  0.43634134  0.84970259  0.35342307  1.0
  Ti  Ti153  1  0.43634134  0.99255974  0.35342307  1.0
  Ti  Ti154  1  0.54745245  0.13541688  0.35342307  1.0
  Ti  Ti155  1  0.54745245  0.27827402  0.35342307  1.0
  Ti  Ti156  1  0.54745245  0.42113117  0.35342307  1.0
  Ti  Ti157  1  0.54745245  0.56398831  0.35342307  1.0
  Ti  Ti158  1  0.54745245  0.70684545  0.35342307  1.0
  Ti  Ti159  1  0.54745245  0.84970259  0.35342307  1.0
  Ti  Ti160  1  0.54745245  0.99255974  0.35342307  1.0
  Ti  Ti161  1  0.65856356  0.13541688  0.35342307  1.0
  Ti  Ti162  1  0.65856356  0.27827402  0.35342307  1.0
  Ti  Ti163  1  0.65856356  0.42113117  0.35342307  1.0
  Ti  Ti164  1  0.65856356  0.56398831  0.35342307  1.0
  Ti  Ti165  1  0.65856356  0.70684545  0.35342307  1.0
  Ti  Ti166  1  0.65856356  0.84970259  0.35342307  1.0
  Ti  Ti167  1  0.65856356  0.99255974  0.35342307  1.0
  Ti  Ti168  1  0.76967467  0.13541688  0.35342307  1.0
  Ti  Ti169  1  0.76967467  0.27827402  0.35342307  1.0
  Ti  Ti170  1  0.76967467  0.42113117  0.35342307  1.0
  Ti  Ti171  1  0.76967467  0.56398831  0.35342307  1.0
  Ti  Ti172  1  0.76967467  0.70684545  0.35342307  1.0
  Ti  Ti173  1  0.76967467  0.84970259  0.35342307  1.0
  Ti  Ti174  1  0.76967467  0.99255974  0.35342307  1.0
  Ti  Ti175  1  0.88078578  0.13541688  0.35342307  1.0
  Ti  Ti176  1  0.88078578  0.27827402  0.35342307  1.0
  Ti  Ti177  1  0.88078578  0.42113117  0.35342307  1.0
  Ti  Ti178  1  0.88078578  0.56398831  0.35342307  1.0
  Ti  Ti179  1  0.88078578  0.70684545  0.35342307  1.0
  Ti  Ti180  1  0.88078578  0.84970259  0.35342307  1.0
  Ti  Ti181  1  0.88078578  0.99255974  0.35342307  1.0
  Ti  Ti182  1  0.99189689  0.13541688  0.35342307  1.0
  Ti  Ti183  1  0.99189689  0.27827402  0.35342307  1.0
  Ti  Ti184  1  0.99189689  0.42113117  0.35342307  1.0
  Ti  Ti185  1  0.99189689  0.56398831  0.35342307  1.0
  Ti  Ti186  1  0.99189689  0.70684545  0.35342307  1.0
  Ti  Ti187  1  0.99189689  0.84970259  0.35342307  1.0
  Ti  Ti188  1  0.99189689  0.99255974  0.35342307  1.0
  Ti  Ti189  1  0.01536297  0.06470958  0.27234015  1.0
  Ti  Ti190  1  0.01536297  0.20756673  0.27234015  1.0
  Ti  Ti191  1  0.01536297  0.35042387  0.27234015  1.0
  Ti  Ti192  1  0.01536297  0.49328101  0.27234015  1.0
  Ti  Ti193  1  0.01536297  0.63613816  0.27234015  1.0
  Ti  Ti194  1  0.01536297  0.77899530  0.27234015  1.0
  Ti  Ti195  1  0.01536297  0.92185244  0.27234015  1.0
  Ti  Ti196  1  0.12647409  0.06470958  0.27234015  1.0
  Ti  Ti197  1  0.12647409  0.20756673  0.27234015  1.0
  Ti  Ti198  1  0.12647409  0.35042387  0.27234015  1.0
  Ti  Ti199  1  0.12647409  0.49328101  0.27234015  1.0
  Ti  Ti200  1  0.12647409  0.63613816  0.27234015  1.0
  Ti  Ti201  1  0.12647409  0.77899530  0.27234015  1.0
  Ti  Ti202  1  0.12647409  0.92185244  0.27234015  1.0
  Ti  Ti203  1  0.23758520  0.06470958  0.27234015  1.0
  Ti  Ti204  1  0.23758520  0.20756673  0.27234015  1.0
  Ti  Ti205  1  0.23758520  0.35042387  0.27234015  1.0
  Ti  Ti206  1  0.23758520  0.49328101  0.27234015  1.0
  Ti  Ti207  1  0.23758520  0.63613816  0.27234015  1.0
  Ti  Ti208  1  0.23758520  0.77899530  0.27234015  1.0
  Ti  Ti209  1  0.23758520  0.92185244  0.27234015  1.0
  Ti  Ti210  1  0.34869631  0.06470958  0.27234015  1.0
  Ti  Ti211  1  0.34869631  0.20756673  0.27234015  1.0
  Ti  Ti212  1  0.34869631  0.35042387  0.27234015  1.0
  Ti  Ti213  1  0.34869631  0.49328101  0.27234015  1.0
  Ti  Ti214  1  0.34869631  0.63613816  0.27234015  1.0
  Ti  Ti215  1  0.34869631  0.77899530  0.27234015  1.0
  Ti  Ti216  1  0.34869631  0.92185244  0.27234015  1.0
  Ti  Ti217  1  0.45980742  0.06470958  0.27234015  1.0
  Ti  Ti218  1  0.45980742  0.20756673  0.27234015  1.0
  Ti  Ti219  1  0.45980742  0.35042387  0.27234015  1.0
  Ti  Ti220  1  0.45980742  0.49328101  0.27234015  1.0
  Ti  Ti221  1  0.45980742  0.63613816  0.27234015  1.0
  Ti  Ti222  1  0.45980742  0.77899530  0.27234015  1.0
  Ti  Ti223  1  0.45980742  0.92185244  0.27234015  1.0
  Ti  Ti224  1  0.57091853  0.06470958  0.27234015  1.0
  Ti  Ti225  1  0.57091853  0.20756673  0.27234015  1.0
  Ti  Ti226  1  0.57091853  0.35042387  0.27234015  1.0
  Ti  Ti227  1  0.57091853  0.49328101  0.27234015  1.0
  Ti  Ti228  1  0.57091853  0.63613816  0.27234015  1.0
  Ti  Ti229  1  0.57091853  0.77899530  0.27234015  1.0
  Ti  Ti230  1  0.57091853  0.92185244  0.27234015  1.0
  Ti  Ti231  1  0.68202964  0.06470958  0.27234015  1.0
  Ti  Ti232  1  0.68202964  0.20756673  0.27234015  1.0
  Ti  Ti233  1  0.68202964  0.35042387  0.27234015  1.0
  Ti  Ti234  1  0.68202964  0.49328101  0.27234015  1.0
  Ti  Ti235  1  0.68202964  0.63613816  0.27234015  1.0
  Ti  Ti236  1  0.68202964  0.77899530  0.27234015  1.0
  Ti  Ti237  1  0.68202964  0.92185244  0.27234015  1.0
  Ti  Ti238  1  0.79314075  0.06470958  0.27234015  1.0
  Ti  Ti239  1  0.79314075  0.20756673  0.27234015  1.0
  Ti  Ti240  1  0.79314075  0.35042387  0.27234015  1.0
  Ti  Ti241  1  0.79314075  0.49328101  0.27234015  1.0
  Ti  Ti242  1  0.79314075  0.63613816  0.27234015  1.0
  Ti  Ti243  1  0.79314075  0.77899530  0.27234015  1.0
  Ti  Ti244  1  0.79314075  0.92185244  0.27234015  1.0
  Ti  Ti245  1  0.90425186  0.06470958  0.27234015  1.0
  Ti  Ti246  1  0.90425186  0.20756673  0.27234015  1.0
  Ti  Ti247  1  0.90425186  0.35042387  0.27234015  1.0
  Ti  Ti248  1  0.90425186  0.49328101  0.27234015  1.0
  Ti  Ti249  1  0.90425186  0.63613816  0.27234015  1.0
  Ti  Ti250  1  0.90425186  0.77899530  0.27234015  1.0
  Ti  Ti251  1  0.90425186  0.92185244  0.27234015  1.0
  Ti  Ti252  1  0.03652700  0.07831503  0.31995920  1.0
  Ti  Ti253  1  0.03652700  0.22117217  0.31995920  1.0
  Ti  Ti254  1  0.03652700  0.36402931  0.31995920  1.0
  Ti  Ti255  1  0.03652700  0.50688646  0.31995920  1.0
  Ti  Ti256  1  0.03652700  0.64974360  0.31995920  1.0
  Ti  Ti257  1  0.03652700  0.79260074  0.31995920  1.0
  Ti  Ti258  1  0.03652700  0.93545788  0.31995920  1.0
  Ti  Ti259  1  0.14763811  0.07831503  0.31995920  1.0
  Ti  Ti260  1  0.14763811  0.22117217  0.31995920  1.0
  Ti  Ti261  1  0.14763811  0.36402931  0.31995920  1.0
  Ti  Ti262  1  0.14763811  0.50688646  0.31995920  1.0
  Ti  Ti263  1  0.14763811  0.64974360  0.31995920  1.0
  Ti  Ti264  1  0.14763811  0.79260074  0.31995920  1.0
  Ti  Ti265  1  0.14763811  0.93545788  0.31995920  1.0
  Ti  Ti266  1  0.25874922  0.07831503  0.31995920  1.0
  Ti  Ti267  1  0.25874922  0.22117217  0.31995920  1.0
  Ti  Ti268  1  0.25874922  0.36402931  0.31995920  1.0
  Ti  Ti269  1  0.25874922  0.50688646  0.31995920  1.0
  Ti  Ti270  1  0.25874922  0.64974360  0.31995920  1.0
  Ti  Ti271  1  0.25874922  0.79260074  0.31995920  1.0
  Ti  Ti272  1  0.25874922  0.93545788  0.31995920  1.0
  Ti  Ti273  1  0.36986033  0.07831503  0.31995920  1.0
  Ti  Ti274  1  0.36986033  0.22117217  0.31995920  1.0
  Ti  Ti275  1  0.36986033  0.36402931  0.31995920  1.0
  Ti  Ti276  1  0.36986033  0.50688646  0.31995920  1.0
  Ti  Ti277  1  0.36986033  0.64974360  0.31995920  1.0
  Ti  Ti278  1  0.36986033  0.79260074  0.31995920  1.0
  Ti  Ti279  1  0.36986033  0.93545788  0.31995920  1.0
  Ti  Ti280  1  0.48097144  0.07831503  0.31995920  1.0
  Ti  Ti281  1  0.48097144  0.22117217  0.31995920  1.0
  Ti  Ti282  1  0.48097144  0.36402931  0.31995920  1.0
  Ti  Ti283  1  0.48097144  0.50688646  0.31995920  1.0
  Ti  Ti284  1  0.48097144  0.64974360  0.31995920  1.0
  Ti  Ti285  1  0.48097144  0.79260074  0.31995920  1.0
  Ti  Ti286  1  0.48097144  0.93545788  0.31995920  1.0
  Ti  Ti287  1  0.59208255  0.07831503  0.31995920  1.0
  Ti  Ti288  1  0.59208255  0.22117217  0.31995920  1.0
  Ti  Ti289  1  0.59208255  0.36402931  0.31995920  1.0
  Ti  Ti290  1  0.59208255  0.50688646  0.31995920  1.0
  Ti  Ti291  1  0.59208255  0.64974360  0.31995920  1.0
  Ti  Ti292  1  0.59208255  0.79260074  0.31995920  1.0
  Ti  Ti293  1  0.59208255  0.93545788  0.31995920  1.0
  Ti  Ti294  1  0.70319366  0.07831503  0.31995920  1.0
  Ti  Ti295  1  0.70319366  0.22117217  0.31995920  1.0
  Ti  Ti296  1  0.70319366  0.36402931  0.31995920  1.0
  Ti  Ti297  1  0.70319366  0.50688646  0.31995920  1.0
  Ti  Ti298  1  0.70319366  0.64974360  0.31995920  1.0
  Ti  Ti299  1  0.70319366  0.79260074  0.31995920  1.0
  Ti  Ti300  1  0.70319366  0.93545788  0.31995920  1.0
  Ti  Ti301  1  0.81430477  0.07831503  0.31995920  1.0
  Ti  Ti302  1  0.81430477  0.22117217  0.31995920  1.0
  Ti  Ti303  1  0.81430477  0.36402931  0.31995920  1.0
  Ti  Ti304  1  0.81430477  0.50688646  0.31995920  1.0
  Ti  Ti305  1  0.81430477  0.64974360  0.31995920  1.0
  Ti  Ti306  1  0.81430477  0.79260074  0.31995920  1.0
  Ti  Ti307  1  0.81430477  0.93545788  0.31995920  1.0
  Ti  Ti308  1  0.92541588  0.07831503  0.31995920  1.0
  Ti  Ti309  1  0.92541588  0.22117217  0.31995920  1.0
  Ti  Ti310  1  0.92541588  0.36402931  0.31995920  1.0
  Ti  Ti311  1  0.92541588  0.50688646  0.31995920  1.0
  Ti  Ti312  1  0.92541588  0.64974360  0.31995920  1.0
  Ti  Ti313  1  0.92541588  0.79260074  0.31995920  1.0
  Ti  Ti314  1  0.92541588  0.93545788  0.31995920  1.0
  Ti  Ti315  1  0.10531006  0.05110414  0.22472111  1.0
  Ti  Ti316  1  0.10531006  0.19396129  0.22472111  1.0
  Ti  Ti317  1  0.10531006  0.33681843  0.22472111  1.0
  Ti  Ti318  1  0.10531006  0.47967557  0.22472111  1.0
  Ti  Ti319  1  0.10531006  0.62253271  0.22472111  1.0
  Ti  Ti320  1  0.10531006  0.76538986  0.22472111  1.0
  Ti  Ti321  1  0.10531006  0.90824700  0.22472111  1.0
  Ti  Ti322  1  0.21642118  0.05110414  0.22472111  1.0
  Ti  Ti323  1  0.21642118  0.19396129  0.22472111  1.0
  Ti  Ti324  1  0.21642118  0.33681843  0.22472111  1.0
  Ti  Ti325  1  0.21642118  0.47967557  0.22472111  1.0
  Ti  Ti326  1  0.21642118  0.62253271  0.22472111  1.0
  Ti  Ti327  1  0.21642118  0.76538986  0.22472111  1.0
  Ti  Ti328  1  0.21642118  0.90824700  0.22472111  1.0
  Ti  Ti329  1  0.32753229  0.05110414  0.22472111  1.0
  Ti  Ti330  1  0.32753229  0.19396129  0.22472111  1.0
  Ti  Ti331  1  0.32753229  0.33681843  0.22472111  1.0
  Ti  Ti332  1  0.32753229  0.47967557  0.22472111  1.0
  Ti  Ti333  1  0.32753229  0.62253271  0.22472111  1.0
  Ti  Ti334  1  0.32753229  0.76538986  0.22472111  1.0
  Ti  Ti335  1  0.32753229  0.90824700  0.22472111  1.0
  Ti  Ti336  1  0.43864340  0.05110414  0.22472111  1.0
  Ti  Ti337  1  0.43864340  0.19396129  0.22472111  1.0
  Ti  Ti338  1  0.43864340  0.33681843  0.22472111  1.0
  Ti  Ti339  1  0.43864340  0.47967557  0.22472111  1.0
  Ti  Ti340  1  0.43864340  0.62253271  0.22472111  1.0
  Ti  Ti341  1  0.43864340  0.76538986  0.22472111  1.0
  Ti  Ti342  1  0.43864340  0.90824700  0.22472111  1.0
  Ti  Ti343  1  0.54975451  0.05110414  0.22472111  1.0
  Ti  Ti344  1  0.54975451  0.19396129  0.22472111  1.0
  Ti  Ti345  1  0.54975451  0.33681843  0.22472111  1.0
  Ti  Ti346  1  0.54975451  0.47967557  0.22472111  1.0
  Ti  Ti347  1  0.54975451  0.62253271  0.22472111  1.0
  Ti  Ti348  1  0.54975451  0.76538986  0.22472111  1.0
  Ti  Ti349  1  0.54975451  0.90824700  0.22472111  1.0
  Ti  Ti350  1  0.66086562  0.05110414  0.22472111  1.0
  Ti  Ti351  1  0.66086562  0.19396129  0.22472111  1.0
  Ti  Ti352  1  0.66086562  0.33681843  0.22472111  1.0
  Ti  Ti353  1  0.66086562  0.47967557  0.22472111  1.0
  Ti  Ti354  1  0.66086562  0.62253271  0.22472111  1.0
  Ti  Ti355  1  0.66086562  0.76538986  0.22472111  1.0
  Ti  Ti356  1  0.66086562  0.90824700  0.22472111  1.0
  Ti  Ti357  1  0.77197673  0.05110414  0.22472111  1.0
  Ti  Ti358  1  0.77197673  0.19396129  0.22472111  1.0
  Ti  Ti359  1  0.77197673  0.33681843  0.22472111  1.0
  Ti  Ti360  1  0.77197673  0.47967557  0.22472111  1.0
  Ti  Ti361  1  0.77197673  0.62253271  0.22472111  1.0
  Ti  Ti362  1  0.77197673  0.76538986  0.22472111  1.0
  Ti  Ti363  1  0.77197673  0.90824700  0.22472111  1.0
  Ti  Ti364  1  0.88308784  0.05110414  0.22472111  1.0
  Ti  Ti365  1  0.88308784  0.19396129  0.22472111  1.0
  Ti  Ti366  1  0.88308784  0.33681843  0.22472111  1.0
  Ti  Ti367  1  0.88308784  0.47967557  0.22472111  1.0
  Ti  Ti368  1  0.88308784  0.62253271  0.22472111  1.0
  Ti  Ti369  1  0.88308784  0.76538986  0.22472111  1.0
  Ti  Ti370  1  0.88308784  0.90824700  0.22472111  1.0
  Ti  Ti371  1  0.99419895  0.05110414  0.22472111  1.0
  Ti  Ti372  1  0.99419895  0.19396129  0.22472111  1.0
  Ti  Ti373  1  0.99419895  0.33681843  0.22472111  1.0
  Ti  Ti374  1  0.99419895  0.47967557  0.22472111  1.0
  Ti  Ti375  1  0.99419895  0.62253271  0.22472111  1.0
  Ti  Ti376  1  0.99419895  0.76538986  0.22472111  1.0
  Ti  Ti377  1  0.99419895  0.90824700  0.22472111  1.0
  Ti  Ti378  1  0.10211457  0.12301607  0.22641284  1.0
  Ti  Ti379  1  0.10211457  0.26587321  0.22641284  1.0
  Ti  Ti380  1  0.10211457  0.40873035  0.22641284  1.0
  Ti  Ti381  1  0.10211457  0.55158749  0.22641284  1.0
  Ti  Ti382  1  0.10211457  0.69444464  0.22641284  1.0
  Ti  Ti383  1  0.10211457  0.83730178  0.22641284  1.0
  Ti  Ti384  1  0.10211457  0.98015892  0.22641284  1.0
  Ti  Ti385  1  0.21322568  0.12301607  0.22641284  1.0
  Ti  Ti386  1  0.21322568  0.26587321  0.22641284  1.0
  Ti  Ti387  1  0.21322568  0.40873035  0.22641284  1.0
  Ti  Ti388  1  0.21322568  0.55158749  0.22641284  1.0
  Ti  Ti389  1  0.21322568  0.69444464  0.22641284  1.0
  Ti  Ti390  1  0.21322568  0.83730178  0.22641284  1.0
  Ti  Ti391  1  0.21322568  0.98015892  0.22641284  1.0
  Ti  Ti392  1  0.32433679  0.12301607  0.22641284  1.0
  Ti  Ti393  1  0.32433679  0.26587321  0.22641284  1.0
  Ti  Ti394  1  0.32433679  0.40873035  0.22641284  1.0
  Ti  Ti395  1  0.32433679  0.55158749  0.22641284  1.0
  Ti  Ti396  1  0.32433679  0.69444464  0.22641284  1.0
  Ti  Ti397  1  0.32433679  0.83730178  0.22641284  1.0
  Ti  Ti398  1  0.32433679  0.98015892  0.22641284  1.0
  Ti  Ti399  1  0.43544790  0.12301607  0.22641284  1.0
  Ti  Ti400  1  0.43544790  0.26587321  0.22641284  1.0
  Ti  Ti401  1  0.43544790  0.40873035  0.22641284  1.0
  Ti  Ti402  1  0.43544790  0.55158749  0.22641284  1.0
  Ti  Ti403  1  0.43544790  0.69444464  0.22641284  1.0
  Ti  Ti404  1  0.43544790  0.83730178  0.22641284  1.0
  Ti  Ti405  1  0.43544790  0.98015892  0.22641284  1.0
  Ti  Ti406  1  0.54655901  0.12301607  0.22641284  1.0
  Ti  Ti407  1  0.54655901  0.26587321  0.22641284  1.0
  Ti  Ti408  1  0.54655901  0.40873035  0.22641284  1.0
  Ti  Ti409  1  0.54655901  0.55158749  0.22641284  1.0
  Ti  Ti410  1  0.54655901  0.69444464  0.22641284  1.0
  Ti  Ti411  1  0.54655901  0.83730178  0.22641284  1.0
  Ti  Ti412  1  0.54655901  0.98015892  0.22641284  1.0
  Ti  Ti413  1  0.65767012  0.12301607  0.22641284  1.0
  Ti  Ti414  1  0.65767012  0.26587321  0.22641284  1.0
  Ti  Ti415  1  0.65767012  0.40873035  0.22641284  1.0
  Ti  Ti416  1  0.65767012  0.55158749  0.22641284  1.0
  Ti  Ti417  1  0.65767012  0.69444464  0.22641284  1.0
  Ti  Ti418  1  0.65767012  0.83730178  0.22641284  1.0
  Ti  Ti419  1  0.65767012  0.98015892  0.22641284  1.0
  Ti  Ti420  1  0.76878124  0.12301607  0.22641284  1.0
  Ti  Ti421  1  0.76878124  0.26587321  0.22641284  1.0
  Ti  Ti422  1  0.76878124  0.40873035  0.22641284  1.0
  Ti  Ti423  1  0.76878124  0.55158749  0.22641284  1.0
  Ti  Ti424  1  0.76878124  0.69444464  0.22641284  1.0
  Ti  Ti425  1  0.76878124  0.83730178  0.22641284  1.0
  Ti  Ti426  1  0.76878124  0.98015892  0.22641284  1.0
  Ti  Ti427  1  0.87989235  0.12301607  0.22641284  1.0
  Ti  Ti428  1  0.87989235  0.26587321  0.22641284  1.0
  Ti  Ti429  1  0.87989235  0.40873035  0.22641284  1.0
  Ti  Ti430  1  0.87989235  0.55158749  0.22641284  1.0
  Ti  Ti431  1  0.87989235  0.69444464  0.22641284  1.0
  Ti  Ti432  1  0.87989235  0.83730178  0.22641284  1.0
  Ti  Ti433  1  0.87989235  0.98015892  0.22641284  1.0
  Ti  Ti434  1  0.99100346  0.12301607  0.22641284  1.0
  Ti  Ti435  1  0.99100346  0.26587321  0.22641284  1.0
  Ti  Ti436  1  0.99100346  0.40873035  0.22641284  1.0
  Ti  Ti437  1  0.99100346  0.55158749  0.22641284  1.0
  Ti  Ti438  1  0.99100346  0.69444464  0.22641284  1.0
  Ti  Ti439  1  0.99100346  0.83730178  0.22641284  1.0
  Ti  Ti440  1  0.99100346  0.98015892  0.22641284  1.0
  Ti  Ti441  1  0.01216748  0.13662151  0.27403189  1.0
  Ti  Ti442  1  0.01216748  0.27947865  0.27403189  1.0
  Ti  Ti443  1  0.01216748  0.42233579  0.27403189  1.0
  Ti  Ti444  1  0.01216748  0.56519294  0.27403189  1.0
  Ti  Ti445  1  0.01216748  0.70805008  0.27403189  1.0
  Ti  Ti446  1  0.01216748  0.85090722  0.27403189  1.0
  Ti  Ti447  1  0.01216748  0.99376437  0.27403189  1.0
  Ti  Ti448  1  0.12327859  0.13662151  0.27403189  1.0
  Ti  Ti449  1  0.12327859  0.27947865  0.27403189  1.0
  Ti  Ti450  1  0.12327859  0.42233579  0.27403189  1.0
  Ti  Ti451  1  0.12327859  0.56519294  0.27403189  1.0
  Ti  Ti452  1  0.12327859  0.70805008  0.27403189  1.0
  Ti  Ti453  1  0.12327859  0.85090722  0.27403189  1.0
  Ti  Ti454  1  0.12327859  0.99376437  0.27403189  1.0
  Ti  Ti455  1  0.23438970  0.13662151  0.27403189  1.0
  Ti  Ti456  1  0.23438970  0.27947865  0.27403189  1.0
  Ti  Ti457  1  0.23438970  0.42233579  0.27403189  1.0
  Ti  Ti458  1  0.23438970  0.56519294  0.27403189  1.0
  Ti  Ti459  1  0.23438970  0.70805008  0.27403189  1.0
  Ti  Ti460  1  0.23438970  0.85090722  0.27403189  1.0
  Ti  Ti461  1  0.23438970  0.99376437  0.27403189  1.0
  Ti  Ti462  1  0.34550081  0.13662151  0.27403189  1.0
  Ti  Ti463  1  0.34550081  0.27947865  0.27403189  1.0
  Ti  Ti464  1  0.34550081  0.42233579  0.27403189  1.0
  Ti  Ti465  1  0.34550081  0.56519294  0.27403189  1.0
  Ti  Ti466  1  0.34550081  0.70805008  0.27403189  1.0
  Ti  Ti467  1  0.34550081  0.85090722  0.27403189  1.0
  Ti  Ti468  1  0.34550081  0.99376437  0.27403189  1.0
  Ti  Ti469  1  0.45661192  0.13662151  0.27403189  1.0
  Ti  Ti470  1  0.45661192  0.27947865  0.27403189  1.0
  Ti  Ti471  1  0.45661192  0.42233579  0.27403189  1.0
  Ti  Ti472  1  0.45661192  0.56519294  0.27403189  1.0
  Ti  Ti473  1  0.45661192  0.70805008  0.27403189  1.0
  Ti  Ti474  1  0.45661192  0.85090722  0.27403189  1.0
  Ti  Ti475  1  0.45661192  0.99376437  0.27403189  1.0
  Ti  Ti476  1  0.56772303  0.13662151  0.27403189  1.0
  Ti  Ti477  1  0.56772303  0.27947865  0.27403189  1.0
  Ti  Ti478  1  0.56772303  0.42233579  0.27403189  1.0
  Ti  Ti479  1  0.56772303  0.56519294  0.27403189  1.0
  Ti  Ti480  1  0.56772303  0.70805008  0.27403189  1.0
  Ti  Ti481  1  0.56772303  0.85090722  0.27403189  1.0
  Ti  Ti482  1  0.56772303  0.99376437  0.27403189  1.0
  Ti  Ti483  1  0.67883415  0.13662151  0.27403189  1.0
  Ti  Ti484  1  0.67883415  0.27947865  0.27403189  1.0
  Ti  Ti485  1  0.67883415  0.42233579  0.27403189  1.0
  Ti  Ti486  1  0.67883415  0.56519294  0.27403189  1.0
  Ti  Ti487  1  0.67883415  0.70805008  0.27403189  1.0
  Ti  Ti488  1  0.67883415  0.85090722  0.27403189  1.0
  Ti  Ti489  1  0.67883415  0.99376437  0.27403189  1.0
  Ti  Ti490  1  0.78994526  0.13662151  0.27403189  1.0
  Ti  Ti491  1  0.78994526  0.27947865  0.27403189  1.0
  Ti  Ti492  1  0.78994526  0.42233579  0.27403189  1.0
  Ti  Ti493  1  0.78994526  0.56519294  0.27403189  1.0
  Ti  Ti494  1  0.78994526  0.70805008  0.27403189  1.0
  Ti  Ti495  1  0.78994526  0.85090722  0.27403189  1.0
  Ti  Ti496  1  0.78994526  0.99376437  0.27403189  1.0
  Ti  Ti497  1  0.90105637  0.13662151  0.27403189  1.0
  Ti  Ti498  1  0.90105637  0.27947865  0.27403189  1.0
  Ti  Ti499  1  0.90105637  0.42233579  0.27403189  1.0
  Ti  Ti500  1  0.90105637  0.56519294  0.27403189  1.0
  Ti  Ti501  1  0.90105637  0.70805008  0.27403189  1.0
  Ti  Ti502  1  0.90105637  0.85090722  0.27403189  1.0
  Ti  Ti503  1  0.90105637  0.99376437  0.27403189  1.0
  Ti  Ti504  1  0.03333150  0.00736981  0.32165093  1.0
  Ti  Ti505  1  0.03333150  0.15022695  0.32165093  1.0
  Ti  Ti506  1  0.03333150  0.29308409  0.32165093  1.0
  Ti  Ti507  1  0.03333150  0.43594124  0.32165093  1.0
  Ti  Ti508  1  0.03333150  0.57879838  0.32165093  1.0
  Ti  Ti509  1  0.03333150  0.72165552  0.32165093  1.0
  Ti  Ti510  1  0.03333150  0.86451266  0.32165093  1.0
  Ti  Ti511  1  0.14444261  0.00736981  0.32165093  1.0
  Ti  Ti512  1  0.14444261  0.15022695  0.32165093  1.0
  Ti  Ti513  1  0.14444261  0.29308409  0.32165093  1.0
  Ti  Ti514  1  0.14444261  0.43594124  0.32165093  1.0
  Ti  Ti515  1  0.14444261  0.57879838  0.32165093  1.0
  Ti  Ti516  1  0.14444261  0.72165552  0.32165093  1.0
  Ti  Ti517  1  0.14444261  0.86451266  0.32165093  1.0
  Ti  Ti518  1  0.25555372  0.00736981  0.32165093  1.0
  Ti  Ti519  1  0.25555372  0.15022695  0.32165093  1.0
  Ti  Ti520  1  0.25555372  0.29308409  0.32165093  1.0
  Ti  Ti521  1  0.25555372  0.43594124  0.32165093  1.0
  Ti  Ti522  1  0.25555372  0.57879838  0.32165093  1.0
  Ti  Ti523  1  0.25555372  0.72165552  0.32165093  1.0
  Ti  Ti524  1  0.25555372  0.86451266  0.32165093  1.0
  Ti  Ti525  1  0.36666483  0.00736981  0.32165093  1.0
  Ti  Ti526  1  0.36666483  0.15022695  0.32165093  1.0
  Ti  Ti527  1  0.36666483  0.29308409  0.32165093  1.0
  Ti  Ti528  1  0.36666483  0.43594124  0.32165093  1.0
  Ti  Ti529  1  0.36666483  0.57879838  0.32165093  1.0
  Ti  Ti530  1  0.36666483  0.72165552  0.32165093  1.0
  Ti  Ti531  1  0.36666483  0.86451266  0.32165093  1.0
  Ti  Ti532  1  0.47777594  0.00736981  0.32165093  1.0
  Ti  Ti533  1  0.47777594  0.15022695  0.32165093  1.0
  Ti  Ti534  1  0.47777594  0.29308409  0.32165093  1.0
  Ti  Ti535  1  0.47777594  0.43594124  0.32165093  1.0
  Ti  Ti536  1  0.47777594  0.57879838  0.32165093  1.0
  Ti  Ti537  1  0.47777594  0.72165552  0.32165093  1.0
  Ti  Ti538  1  0.47777594  0.86451266  0.32165093  1.0
  Ti  Ti539  1  0.58888706  0.00736981  0.32165093  1.0
  Ti  Ti540  1  0.58888706  0.15022695  0.32165093  1.0
  Ti  Ti541  1  0.58888706  0.29308409  0.32165093  1.0
  Ti  Ti542  1  0.58888706  0.43594124  0.32165093  1.0
  Ti  Ti543  1  0.58888706  0.57879838  0.32165093  1.0
  Ti  Ti544  1  0.58888706  0.72165552  0.32165093  1.0
  Ti  Ti545  1  0.58888706  0.86451266  0.32165093  1.0
  Ti  Ti546  1  0.69999817  0.00736981  0.32165093  1.0
  Ti  Ti547  1  0.69999817  0.15022695  0.32165093  1.0
  Ti  Ti548  1  0.69999817  0.29308409  0.32165093  1.0
  Ti  Ti549  1  0.69999817  0.43594124  0.32165093  1.0
  Ti  Ti550  1  0.69999817  0.57879838  0.32165093  1.0
  Ti  Ti551  1  0.69999817  0.72165552  0.32165093  1.0
  Ti  Ti552  1  0.69999817  0.86451266  0.32165093  1.0
  Ti  Ti553  1  0.81110928  0.00736981  0.32165093  1.0
  Ti  Ti554  1  0.81110928  0.15022695  0.32165093  1.0
  Ti  Ti555  1  0.81110928  0.29308409  0.32165093  1.0
  Ti  Ti556  1  0.81110928  0.43594124  0.32165093  1.0
  Ti  Ti557  1  0.81110928  0.57879838  0.32165093  1.0
  Ti  Ti558  1  0.81110928  0.72165552  0.32165093  1.0
  Ti  Ti559  1  0.81110928  0.86451266  0.32165093  1.0
  Ti  Ti560  1  0.92222039  0.00736981  0.32165093  1.0
  Ti  Ti561  1  0.92222039  0.15022695  0.32165093  1.0
  Ti  Ti562  1  0.92222039  0.29308409  0.32165093  1.0
  Ti  Ti563  1  0.92222039  0.43594124  0.32165093  1.0
  Ti  Ti564  1  0.92222039  0.57879838  0.32165093  1.0
  Ti  Ti565  1  0.92222039  0.72165552  0.32165093  1.0
  Ti  Ti566  1  0.92222039  0.86451266  0.32165093  1.0
  Ti  Ti567  1  0.08503948  0.04989951  0.30411229  1.0
  Ti  Ti568  1  0.08503948  0.19275666  0.30411229  1.0
  Ti  Ti569  1  0.08503948  0.33561380  0.30411229  1.0
  Ti  Ti570  1  0.08503948  0.47847094  0.30411229  1.0
  Ti  Ti571  1  0.08503948  0.62132808  0.30411229  1.0
  Ti  Ti572  1  0.08503948  0.76418523  0.30411229  1.0
  Ti  Ti573  1  0.08503948  0.90704237  0.30411229  1.0
  Ti  Ti574  1  0.19615059  0.04989951  0.30411229  1.0
  Ti  Ti575  1  0.19615059  0.19275666  0.30411229  1.0
  Ti  Ti576  1  0.19615059  0.33561380  0.30411229  1.0
  Ti  Ti577  1  0.19615059  0.47847094  0.30411229  1.0
  Ti  Ti578  1  0.19615059  0.62132808  0.30411229  1.0
  Ti  Ti579  1  0.19615059  0.76418523  0.30411229  1.0
  Ti  Ti580  1  0.19615059  0.90704237  0.30411229  1.0
  Ti  Ti581  1  0.30726170  0.04989951  0.30411229  1.0
  Ti  Ti582  1  0.30726170  0.19275666  0.30411229  1.0
  Ti  Ti583  1  0.30726170  0.33561380  0.30411229  1.0
  Ti  Ti584  1  0.30726170  0.47847094  0.30411229  1.0
  Ti  Ti585  1  0.30726170  0.62132808  0.30411229  1.0
  Ti  Ti586  1  0.30726170  0.76418523  0.30411229  1.0
  Ti  Ti587  1  0.30726170  0.90704237  0.30411229  1.0
  Ti  Ti588  1  0.41837281  0.04989951  0.30411229  1.0
  Ti  Ti589  1  0.41837281  0.19275666  0.30411229  1.0
  Ti  Ti590  1  0.41837281  0.33561380  0.30411229  1.0
  Ti  Ti591  1  0.41837281  0.47847094  0.30411229  1.0
  Ti  Ti592  1  0.41837281  0.62132808  0.30411229  1.0
  Ti  Ti593  1  0.41837281  0.76418523  0.30411229  1.0
  Ti  Ti594  1  0.41837281  0.90704237  0.30411229  1.0
  Ti  Ti595  1  0.52948392  0.04989951  0.30411229  1.0
  Ti  Ti596  1  0.52948392  0.19275666  0.30411229  1.0
  Ti  Ti597  1  0.52948392  0.33561380  0.30411229  1.0
  Ti  Ti598  1  0.52948392  0.47847094  0.30411229  1.0
  Ti  Ti599  1  0.52948392  0.62132808  0.30411229  1.0
  Ti  Ti600  1  0.52948392  0.76418523  0.30411229  1.0
  Ti  Ti601  1  0.52948392  0.90704237  0.30411229  1.0
  Ti  Ti602  1  0.64059503  0.04989951  0.30411229  1.0
  Ti  Ti603  1  0.64059503  0.19275666  0.30411229  1.0
  Ti  Ti604  1  0.64059503  0.33561380  0.30411229  1.0
  Ti  Ti605  1  0.64059503  0.47847094  0.30411229  1.0
  Ti  Ti606  1  0.64059503  0.62132808  0.30411229  1.0
  Ti  Ti607  1  0.64059503  0.76418523  0.30411229  1.0
  Ti  Ti608  1  0.64059503  0.90704237  0.30411229  1.0
  Ti  Ti609  1  0.75170614  0.04989951  0.30411229  1.0
  Ti  Ti610  1  0.75170614  0.19275666  0.30411229  1.0
  Ti  Ti611  1  0.75170614  0.33561380  0.30411229  1.0
  Ti  Ti612  1  0.75170614  0.47847094  0.30411229  1.0
  Ti  Ti613  1  0.75170614  0.62132808  0.30411229  1.0
  Ti  Ti614  1  0.75170614  0.76418523  0.30411229  1.0
  Ti  Ti615  1  0.75170614  0.90704237  0.30411229  1.0
  Ti  Ti616  1  0.86281726  0.04989951  0.30411229  1.0
  Ti  Ti617  1  0.86281726  0.19275666  0.30411229  1.0
  Ti  Ti618  1  0.86281726  0.33561380  0.30411229  1.0
  Ti  Ti619  1  0.86281726  0.47847094  0.30411229  1.0
  Ti  Ti620  1  0.86281726  0.62132808  0.30411229  1.0
  Ti  Ti621  1  0.86281726  0.76418523  0.30411229  1.0
  Ti  Ti622  1  0.86281726  0.90704237  0.30411229  1.0
  Ti  Ti623  1  0.97392837  0.04989951  0.30411229  1.0
  Ti  Ti624  1  0.97392837  0.19275666  0.30411229  1.0
  Ti  Ti625  1  0.97392837  0.33561380  0.30411229  1.0
  Ti  Ti626  1  0.97392837  0.47847094  0.30411229  1.0
  Ti  Ti627  1  0.97392837  0.62132808  0.30411229  1.0
  Ti  Ti628  1  0.97392837  0.76418523  0.30411229  1.0
  Ti  Ti629  1  0.97392837  0.90704237  0.30411229  1.0
  Ti  Ti630  1  0.10620350  0.06350496  0.35173133  1.0
  Ti  Ti631  1  0.10620350  0.20636210  0.35173133  1.0
  Ti  Ti632  1  0.10620350  0.34921924  0.35173133  1.0
  Ti  Ti633  1  0.10620350  0.49207638  0.35173133  1.0
  Ti  Ti634  1  0.10620350  0.63493353  0.35173133  1.0
  Ti  Ti635  1  0.10620350  0.77779067  0.35173133  1.0
  Ti  Ti636  1  0.10620350  0.92064781  0.35173133  1.0
  Ti  Ti637  1  0.21731461  0.06350496  0.35173133  1.0
  Ti  Ti638  1  0.21731461  0.20636210  0.35173133  1.0
  Ti  Ti639  1  0.21731461  0.34921924  0.35173133  1.0
  Ti  Ti640  1  0.21731461  0.49207638  0.35173133  1.0
  Ti  Ti641  1  0.21731461  0.63493353  0.35173133  1.0
  Ti  Ti642  1  0.21731461  0.77779067  0.35173133  1.0
  Ti  Ti643  1  0.21731461  0.92064781  0.35173133  1.0
  Ti  Ti644  1  0.32842572  0.06350496  0.35173133  1.0
  Ti  Ti645  1  0.32842572  0.20636210  0.35173133  1.0
  Ti  Ti646  1  0.32842572  0.34921924  0.35173133  1.0
  Ti  Ti647  1  0.32842572  0.49207638  0.35173133  1.0
  Ti  Ti648  1  0.32842572  0.63493353  0.35173133  1.0
  Ti  Ti649  1  0.32842572  0.77779067  0.35173133  1.0
  Ti  Ti650  1  0.32842572  0.92064781  0.35173133  1.0
  Ti  Ti651  1  0.43953683  0.06350496  0.35173133  1.0
  Ti  Ti652  1  0.43953683  0.20636210  0.35173133  1.0
  Ti  Ti653  1  0.43953683  0.34921924  0.35173133  1.0
  Ti  Ti654  1  0.43953683  0.49207638  0.35173133  1.0
  Ti  Ti655  1  0.43953683  0.63493353  0.35173133  1.0
  Ti  Ti656  1  0.43953683  0.77779067  0.35173133  1.0
  Ti  Ti657  1  0.43953683  0.92064781  0.35173133  1.0
  Ti  Ti658  1  0.55064794  0.06350496  0.35173133  1.0
  Ti  Ti659  1  0.55064794  0.20636210  0.35173133  1.0
  Ti  Ti660  1  0.55064794  0.34921924  0.35173133  1.0
  Ti  Ti661  1  0.55064794  0.49207638  0.35173133  1.0
  Ti  Ti662  1  0.55064794  0.63493353  0.35173133  1.0
  Ti  Ti663  1  0.55064794  0.77779067  0.35173133  1.0
  Ti  Ti664  1  0.55064794  0.92064781  0.35173133  1.0
  Ti  Ti665  1  0.66175905  0.06350496  0.35173133  1.0
  Ti  Ti666  1  0.66175905  0.20636210  0.35173133  1.0
  Ti  Ti667  1  0.66175905  0.34921924  0.35173133  1.0
  Ti  Ti668  1  0.66175905  0.49207638  0.35173133  1.0
  Ti  Ti669  1  0.66175905  0.63493353  0.35173133  1.0
  Ti  Ti670  1  0.66175905  0.77779067  0.35173133  1.0
  Ti  Ti671  1  0.66175905  0.92064781  0.35173133  1.0
  Ti  Ti672  1  0.77287017  0.06350496  0.35173133  1.0
  Ti  Ti673  1  0.77287017  0.20636210  0.35173133  1.0
  Ti  Ti674  1  0.77287017  0.34921924  0.35173133  1.0
  Ti  Ti675  1  0.77287017  0.49207638  0.35173133  1.0
  Ti  Ti676  1  0.77287017  0.63493353  0.35173133  1.0
  Ti  Ti677  1  0.77287017  0.77779067  0.35173133  1.0
  Ti  Ti678  1  0.77287017  0.92064781  0.35173133  1.0
  Ti  Ti679  1  0.88398128  0.06350496  0.35173133  1.0
  Ti  Ti680  1  0.88398128  0.20636210  0.35173133  1.0
  Ti  Ti681  1  0.88398128  0.34921924  0.35173133  1.0
  Ti  Ti682  1  0.88398128  0.49207638  0.35173133  1.0
  Ti  Ti683  1  0.88398128  0.63493353  0.35173133  1.0
  Ti  Ti684  1  0.88398128  0.77779067  0.35173133  1.0
  Ti  Ti685  1  0.88398128  0.92064781  0.35173133  1.0
  Ti  Ti686  1  0.99509239  0.06350496  0.35173133  1.0
  Ti  Ti687  1  0.99509239  0.20636210  0.35173133  1.0
  Ti  Ti688  1  0.99509239  0.34921924  0.35173133  1.0
  Ti  Ti689  1  0.99509239  0.49207638  0.35173133  1.0
  Ti  Ti690  1  0.99509239  0.63493353  0.35173133  1.0
  Ti  Ti691  1  0.99509239  0.77779067  0.35173133  1.0
  Ti  Ti692  1  0.99509239  0.92064781  0.35173133  1.0
  Ti  Ti693  1  0.06387546  0.03629407  0.25649324  1.0
  Ti  Ti694  1  0.06387546  0.17915121  0.25649324  1.0
  Ti  Ti695  1  0.06387546  0.32200836  0.25649324  1.0
  Ti  Ti696  1  0.06387546  0.46486550  0.25649324  1.0
  Ti  Ti697  1  0.06387546  0.60772264  0.25649324  1.0
  Ti  Ti698  1  0.06387546  0.75057979  0.25649324  1.0
  Ti  Ti699  1  0.06387546  0.89343693  0.25649324  1.0
  Ti  Ti700  1  0.17498657  0.03629407  0.25649324  1.0
  Ti  Ti701  1  0.17498657  0.17915121  0.25649324  1.0
  Ti  Ti702  1  0.17498657  0.32200836  0.25649324  1.0
  Ti  Ti703  1  0.17498657  0.46486550  0.25649324  1.0
  Ti  Ti704  1  0.17498657  0.60772264  0.25649324  1.0
  Ti  Ti705  1  0.17498657  0.75057979  0.25649324  1.0
  Ti  Ti706  1  0.17498657  0.89343693  0.25649324  1.0
  Ti  Ti707  1  0.28609768  0.03629407  0.25649324  1.0
  Ti  Ti708  1  0.28609768  0.17915121  0.25649324  1.0
  Ti  Ti709  1  0.28609768  0.32200836  0.25649324  1.0
  Ti  Ti710  1  0.28609768  0.46486550  0.25649324  1.0
  Ti  Ti711  1  0.28609768  0.60772264  0.25649324  1.0
  Ti  Ti712  1  0.28609768  0.75057979  0.25649324  1.0
  Ti  Ti713  1  0.28609768  0.89343693  0.25649324  1.0
  Ti  Ti714  1  0.39720879  0.03629407  0.25649324  1.0
  Ti  Ti715  1  0.39720879  0.17915121  0.25649324  1.0
  Ti  Ti716  1  0.39720879  0.32200836  0.25649324  1.0
  Ti  Ti717  1  0.39720879  0.46486550  0.25649324  1.0
  Ti  Ti718  1  0.39720879  0.60772264  0.25649324  1.0
  Ti  Ti719  1  0.39720879  0.75057979  0.25649324  1.0
  Ti  Ti720  1  0.39720879  0.89343693  0.25649324  1.0
  Ti  Ti721  1  0.50831990  0.03629407  0.25649324  1.0
  Ti  Ti722  1  0.50831990  0.17915121  0.25649324  1.0
  Ti  Ti723  1  0.50831990  0.32200836  0.25649324  1.0
  Ti  Ti724  1  0.50831990  0.46486550  0.25649324  1.0
  Ti  Ti725  1  0.50831990  0.60772264  0.25649324  1.0
  Ti  Ti726  1  0.50831990  0.75057979  0.25649324  1.0
  Ti  Ti727  1  0.50831990  0.89343693  0.25649324  1.0
  Ti  Ti728  1  0.61943101  0.03629407  0.25649324  1.0
  Ti  Ti729  1  0.61943101  0.17915121  0.25649324  1.0
  Ti  Ti730  1  0.61943101  0.32200836  0.25649324  1.0
  Ti  Ti731  1  0.61943101  0.46486550  0.25649324  1.0
  Ti  Ti732  1  0.61943101  0.60772264  0.25649324  1.0
  Ti  Ti733  1  0.61943101  0.75057979  0.25649324  1.0
  Ti  Ti734  1  0.61943101  0.89343693  0.25649324  1.0
  Ti  Ti735  1  0.73054212  0.03629407  0.25649324  1.0
  Ti  Ti736  1  0.73054212  0.17915121  0.25649324  1.0
  Ti  Ti737  1  0.73054212  0.32200836  0.25649324  1.0
  Ti  Ti738  1  0.73054212  0.46486550  0.25649324  1.0
  Ti  Ti739  1  0.73054212  0.60772264  0.25649324  1.0
  Ti  Ti740  1  0.73054212  0.75057979  0.25649324  1.0
  Ti  Ti741  1  0.73054212  0.89343693  0.25649324  1.0
  Ti  Ti742  1  0.84165323  0.03629407  0.25649324  1.0
  Ti  Ti743  1  0.84165323  0.17915121  0.25649324  1.0
  Ti  Ti744  1  0.84165323  0.32200836  0.25649324  1.0
  Ti  Ti745  1  0.84165323  0.46486550  0.25649324  1.0
  Ti  Ti746  1  0.84165323  0.60772264  0.25649324  1.0
  Ti  Ti747  1  0.84165323  0.75057979  0.25649324  1.0
  Ti  Ti748  1  0.84165323  0.89343693  0.25649324  1.0
  Ti  Ti749  1  0.95276435  0.03629407  0.25649324  1.0
  Ti  Ti750  1  0.95276435  0.17915121  0.25649324  1.0
  Ti  Ti751  1  0.95276435  0.32200836  0.25649324  1.0
  Ti  Ti752  1  0.95276435  0.46486550  0.25649324  1.0
  Ti  Ti753  1  0.95276435  0.60772264  0.25649324  1.0
  Ti  Ti754  1  0.95276435  0.75057979  0.25649324  1.0
  Ti  Ti755  1  0.95276435  0.89343693  0.25649324  1.0
  Ti  Ti756  1  0.01306091  0.00616518  0.40104211  1.0
  Ti  Ti757  1  0.01306091  0.14902232  0.40104211  1.0
  Ti  Ti758  1  0.01306091  0.29187946  0.40104211  1.0
  Ti  Ti759  1  0.01306091  0.43473661  0.40104211  1.0
  Ti  Ti760  1  0.01306091  0.57759375  0.40104211  1.0
  Ti  Ti761  1  0.01306091  0.72045089  0.40104211  1.0
  Ti  Ti762  1  0.01306091  0.86330804  0.40104211  1.0
  Ti  Ti763  1  0.12417202  0.00616518  0.40104211  1.0
  Ti  Ti764  1  0.12417202  0.14902232  0.40104211  1.0
  Ti  Ti765  1  0.12417202  0.29187946  0.40104211  1.0
  Ti  Ti766  1  0.12417202  0.43473661  0.40104211  1.0
  Ti  Ti767  1  0.12417202  0.57759375  0.40104211  1.0
  Ti  Ti768  1  0.12417202  0.72045089  0.40104211  1.0
  Ti  Ti769  1  0.12417202  0.86330804  0.40104211  1.0
  Ti  Ti770  1  0.23528313  0.00616518  0.40104211  1.0
  Ti  Ti771  1  0.23528313  0.14902232  0.40104211  1.0
  Ti  Ti772  1  0.23528313  0.29187946  0.40104211  1.0
  Ti  Ti773  1  0.23528313  0.43473661  0.40104211  1.0
  Ti  Ti774  1  0.23528313  0.57759375  0.40104211  1.0
  Ti  Ti775  1  0.23528313  0.72045089  0.40104211  1.0
  Ti  Ti776  1  0.23528313  0.86330804  0.40104211  1.0
  Ti  Ti777  1  0.34639425  0.00616518  0.40104211  1.0
  Ti  Ti778  1  0.34639425  0.14902232  0.40104211  1.0
  Ti  Ti779  1  0.34639425  0.29187946  0.40104211  1.0
  Ti  Ti780  1  0.34639425  0.43473661  0.40104211  1.0
  Ti  Ti781  1  0.34639425  0.57759375  0.40104211  1.0
  Ti  Ti782  1  0.34639425  0.72045089  0.40104211  1.0
  Ti  Ti783  1  0.34639425  0.86330804  0.40104211  1.0
  Ti  Ti784  1  0.45750536  0.00616518  0.40104211  1.0
  Ti  Ti785  1  0.45750536  0.14902232  0.40104211  1.0
  Ti  Ti786  1  0.45750536  0.29187946  0.40104211  1.0
  Ti  Ti787  1  0.45750536  0.43473661  0.40104211  1.0
  Ti  Ti788  1  0.45750536  0.57759375  0.40104211  1.0
  Ti  Ti789  1  0.45750536  0.72045089  0.40104211  1.0
  Ti  Ti790  1  0.45750536  0.86330804  0.40104211  1.0
  Ti  Ti791  1  0.56861647  0.00616518  0.40104211  1.0
  Ti  Ti792  1  0.56861647  0.14902232  0.40104211  1.0
  Ti  Ti793  1  0.56861647  0.29187946  0.40104211  1.0
  Ti  Ti794  1  0.56861647  0.43473661  0.40104211  1.0
  Ti  Ti795  1  0.56861647  0.57759375  0.40104211  1.0
  Ti  Ti796  1  0.56861647  0.72045089  0.40104211  1.0
  Ti  Ti797  1  0.56861647  0.86330804  0.40104211  1.0
  Ti  Ti798  1  0.67972758  0.00616518  0.40104211  1.0
  Ti  Ti799  1  0.67972758  0.14902232  0.40104211  1.0
  Ti  Ti800  1  0.67972758  0.29187946  0.40104211  1.0
  Ti  Ti801  1  0.67972758  0.43473661  0.40104211  1.0
  Ti  Ti802  1  0.67972758  0.57759375  0.40104211  1.0
  Ti  Ti803  1  0.67972758  0.72045089  0.40104211  1.0
  Ti  Ti804  1  0.67972758  0.86330804  0.40104211  1.0
  Ti  Ti805  1  0.79083869  0.00616518  0.40104211  1.0
  Ti  Ti806  1  0.79083869  0.14902232  0.40104211  1.0
  Ti  Ti807  1  0.79083869  0.29187946  0.40104211  1.0
  Ti  Ti808  1  0.79083869  0.43473661  0.40104211  1.0
  Ti  Ti809  1  0.79083869  0.57759375  0.40104211  1.0
  Ti  Ti810  1  0.79083869  0.72045089  0.40104211  1.0
  Ti  Ti811  1  0.79083869  0.86330804  0.40104211  1.0
  Ti  Ti812  1  0.90194980  0.00616518  0.40104211  1.0
  Ti  Ti813  1  0.90194980  0.14902232  0.40104211  1.0
  Ti  Ti814  1  0.90194980  0.29187946  0.40104211  1.0
  Ti  Ti815  1  0.90194980  0.43473661  0.40104211  1.0
  Ti  Ti816  1  0.90194980  0.57759375  0.40104211  1.0
  Ti  Ti817  1  0.90194980  0.72045089  0.40104211  1.0
  Ti  Ti818  1  0.90194980  0.86330804  0.40104211  1.0
  Ti  Ti819  1  0.03422493  0.01977062  0.44866116  1.0
  Ti  Ti820  1  0.03422493  0.16262776  0.44866116  1.0
  Ti  Ti821  1  0.03422493  0.30548491  0.44866116  1.0
  Ti  Ti822  1  0.03422493  0.44834205  0.44866116  1.0
  Ti  Ti823  1  0.03422493  0.59119919  0.44866116  1.0
  Ti  Ti824  1  0.03422493  0.73405634  0.44866116  1.0
  Ti  Ti825  1  0.03422493  0.87691348  0.44866116  1.0
  Ti  Ti826  1  0.14533604  0.01977062  0.44866116  1.0
  Ti  Ti827  1  0.14533604  0.16262776  0.44866116  1.0
  Ti  Ti828  1  0.14533604  0.30548491  0.44866116  1.0
  Ti  Ti829  1  0.14533604  0.44834205  0.44866116  1.0
  Ti  Ti830  1  0.14533604  0.59119919  0.44866116  1.0
  Ti  Ti831  1  0.14533604  0.73405634  0.44866116  1.0
  Ti  Ti832  1  0.14533604  0.87691348  0.44866116  1.0
  Ti  Ti833  1  0.25644716  0.01977062  0.44866116  1.0
  Ti  Ti834  1  0.25644716  0.16262776  0.44866116  1.0
  Ti  Ti835  1  0.25644716  0.30548491  0.44866116  1.0
  Ti  Ti836  1  0.25644716  0.44834205  0.44866116  1.0
  Ti  Ti837  1  0.25644716  0.59119919  0.44866116  1.0
  Ti  Ti838  1  0.25644716  0.73405634  0.44866116  1.0
  Ti  Ti839  1  0.25644716  0.87691348  0.44866116  1.0
  Ti  Ti840  1  0.36755827  0.01977062  0.44866116  1.0
  Ti  Ti841  1  0.36755827  0.16262776  0.44866116  1.0
  Ti  Ti842  1  0.36755827  0.30548491  0.44866116  1.0
  Ti  Ti843  1  0.36755827  0.44834205  0.44866116  1.0
  Ti  Ti844  1  0.36755827  0.59119919  0.44866116  1.0
  Ti  Ti845  1  0.36755827  0.73405634  0.44866116  1.0
  Ti  Ti846  1  0.36755827  0.87691348  0.44866116  1.0
  Ti  Ti847  1  0.47866938  0.01977062  0.44866116  1.0
  Ti  Ti848  1  0.47866938  0.16262776  0.44866116  1.0
  Ti  Ti849  1  0.47866938  0.30548491  0.44866116  1.0
  Ti  Ti850  1  0.47866938  0.44834205  0.44866116  1.0
  Ti  Ti851  1  0.47866938  0.59119919  0.44866116  1.0
  Ti  Ti852  1  0.47866938  0.73405634  0.44866116  1.0
  Ti  Ti853  1  0.47866938  0.87691348  0.44866116  1.0
  Ti  Ti854  1  0.58978049  0.01977062  0.44866116  1.0
  Ti  Ti855  1  0.58978049  0.16262776  0.44866116  1.0
  Ti  Ti856  1  0.58978049  0.30548491  0.44866116  1.0
  Ti  Ti857  1  0.58978049  0.44834205  0.44866116  1.0
  Ti  Ti858  1  0.58978049  0.59119919  0.44866116  1.0
  Ti  Ti859  1  0.58978049  0.73405634  0.44866116  1.0
  Ti  Ti860  1  0.58978049  0.87691348  0.44866116  1.0
  Ti  Ti861  1  0.70089160  0.01977062  0.44866116  1.0
  Ti  Ti862  1  0.70089160  0.16262776  0.44866116  1.0
  Ti  Ti863  1  0.70089160  0.30548491  0.44866116  1.0
  Ti  Ti864  1  0.70089160  0.44834205  0.44866116  1.0
  Ti  Ti865  1  0.70089160  0.59119919  0.44866116  1.0
  Ti  Ti866  1  0.70089160  0.73405634  0.44866116  1.0
  Ti  Ti867  1  0.70089160  0.87691348  0.44866116  1.0
  Ti  Ti868  1  0.81200271  0.01977062  0.44866116  1.0
  Ti  Ti869  1  0.81200271  0.16262776  0.44866116  1.0
  Ti  Ti870  1  0.81200271  0.30548491  0.44866116  1.0
  Ti  Ti871  1  0.81200271  0.44834205  0.44866116  1.0
  Ti  Ti872  1  0.81200271  0.59119919  0.44866116  1.0
  Ti  Ti873  1  0.81200271  0.73405634  0.44866116  1.0
  Ti  Ti874  1  0.81200271  0.87691348  0.44866116  1.0
  Ti  Ti875  1  0.92311382  0.01977062  0.44866116  1.0
  Ti  Ti876  1  0.92311382  0.16262776  0.44866116  1.0
  Ti  Ti877  1  0.92311382  0.30548491  0.44866116  1.0
  Ti  Ti878  1  0.92311382  0.44834205  0.44866116  1.0
  Ti  Ti879  1  0.92311382  0.59119919  0.44866116  1.0
  Ti  Ti880  1  0.92311382  0.73405634  0.44866116  1.0
  Ti  Ti881  1  0.92311382  0.87691348  0.44866116  1.0
  Ti  Ti882  1  0.05538895  0.03337606  0.49628021  1.0
  Ti  Ti883  1  0.05538895  0.17623321  0.49628021  1.0
  Ti  Ti884  1  0.05538895  0.31909035  0.49628021  1.0
  Ti  Ti885  1  0.05538895  0.46194749  0.49628021  1.0
  Ti  Ti886  1  0.05538895  0.60480463  0.49628021  1.0
  Ti  Ti887  1  0.05538895  0.74766178  0.49628021  1.0
  Ti  Ti888  1  0.05538895  0.89051892  0.49628021  1.0
  Ti  Ti889  1  0.16650007  0.03337606  0.49628021  1.0
  Ti  Ti890  1  0.16650007  0.17623321  0.49628021  1.0
  Ti  Ti891  1  0.16650007  0.31909035  0.49628021  1.0
  Ti  Ti892  1  0.16650007  0.46194749  0.49628021  1.0
  Ti  Ti893  1  0.16650007  0.60480463  0.49628021  1.0
  Ti  Ti894  1  0.16650007  0.74766178  0.49628021  1.0
  Ti  Ti895  1  0.16650007  0.89051892  0.49628021  1.0
  Ti  Ti896  1  0.27761118  0.03337606  0.49628021  1.0
  Ti  Ti897  1  0.27761118  0.17623321  0.49628021  1.0
  Ti  Ti898  1  0.27761118  0.31909035  0.49628021  1.0
  Ti  Ti899  1  0.27761118  0.46194749  0.49628021  1.0
  Ti  Ti900  1  0.27761118  0.60480463  0.49628021  1.0
  Ti  Ti901  1  0.27761118  0.74766178  0.49628021  1.0
  Ti  Ti902  1  0.27761118  0.89051892  0.49628021  1.0
  Ti  Ti903  1  0.38872229  0.03337606  0.49628021  1.0
  Ti  Ti904  1  0.38872229  0.17623321  0.49628021  1.0
  Ti  Ti905  1  0.38872229  0.31909035  0.49628021  1.0
  Ti  Ti906  1  0.38872229  0.46194749  0.49628021  1.0
  Ti  Ti907  1  0.38872229  0.60480463  0.49628021  1.0
  Ti  Ti908  1  0.38872229  0.74766178  0.49628021  1.0
  Ti  Ti909  1  0.38872229  0.89051892  0.49628021  1.0
  Ti  Ti910  1  0.49983340  0.03337606  0.49628021  1.0
  Ti  Ti911  1  0.49983340  0.17623321  0.49628021  1.0
  Ti  Ti912  1  0.49983340  0.31909035  0.49628021  1.0
  Ti  Ti913  1  0.49983340  0.46194749  0.49628021  1.0
  Ti  Ti914  1  0.49983340  0.60480463  0.49628021  1.0
  Ti  Ti915  1  0.49983340  0.74766178  0.49628021  1.0
  Ti  Ti916  1  0.49983340  0.89051892  0.49628021  1.0
  Ti  Ti917  1  0.61094451  0.03337606  0.49628021  1.0
  Ti  Ti918  1  0.61094451  0.17623321  0.49628021  1.0
  Ti  Ti919  1  0.61094451  0.31909035  0.49628021  1.0
  Ti  Ti920  1  0.61094451  0.46194749  0.49628021  1.0
  Ti  Ti921  1  0.61094451  0.60480463  0.49628021  1.0
  Ti  Ti922  1  0.61094451  0.74766178  0.49628021  1.0
  Ti  Ti923  1  0.61094451  0.89051892  0.49628021  1.0
  Ti  Ti924  1  0.72205562  0.03337606  0.49628021  1.0
  Ti  Ti925  1  0.72205562  0.17623321  0.49628021  1.0
  Ti  Ti926  1  0.72205562  0.31909035  0.49628021  1.0
  Ti  Ti927  1  0.72205562  0.46194749  0.49628021  1.0
  Ti  Ti928  1  0.72205562  0.60480463  0.49628021  1.0
  Ti  Ti929  1  0.72205562  0.74766178  0.49628021  1.0
  Ti  Ti930  1  0.72205562  0.89051892  0.49628021  1.0
  Ti  Ti931  1  0.83316673  0.03337606  0.49628021  1.0
  Ti  Ti932  1  0.83316673  0.17623321  0.49628021  1.0
  Ti  Ti933  1  0.83316673  0.31909035  0.49628021  1.0
  Ti  Ti934  1  0.83316673  0.46194749  0.49628021  1.0
  Ti  Ti935  1  0.83316673  0.60480463  0.49628021  1.0
  Ti  Ti936  1  0.83316673  0.74766178  0.49628021  1.0
  Ti  Ti937  1  0.83316673  0.89051892  0.49628021  1.0
  Ti  Ti938  1  0.94427784  0.03337606  0.49628021  1.0
  Ti  Ti939  1  0.94427784  0.17623321  0.49628021  1.0
  Ti  Ti940  1  0.94427784  0.31909035  0.49628021  1.0
  Ti  Ti941  1  0.94427784  0.46194749  0.49628021  1.0
  Ti  Ti942  1  0.94427784  0.60480463  0.49628021  1.0
  Ti  Ti943  1  0.94427784  0.74766178  0.49628021  1.0
  Ti  Ti944  1  0.94427784  0.89051892  0.49628021  1.0
  Ti  Ti945  1  0.07885504  0.10552591  0.41519730  1.0
  Ti  Ti946  1  0.07885504  0.24838305  0.41519730  1.0
  Ti  Ti947  1  0.07885504  0.39124020  0.41519730  1.0
  Ti  Ti948  1  0.07885504  0.53409734  0.41519730  1.0
  Ti  Ti949  1  0.07885504  0.67695448  0.41519730  1.0
  Ti  Ti950  1  0.07885504  0.81981163  0.41519730  1.0
  Ti  Ti951  1  0.07885504  0.96266877  0.41519730  1.0
  Ti  Ti952  1  0.18996615  0.10552591  0.41519730  1.0
  Ti  Ti953  1  0.18996615  0.24838305  0.41519730  1.0
  Ti  Ti954  1  0.18996615  0.39124020  0.41519730  1.0
  Ti  Ti955  1  0.18996615  0.53409734  0.41519730  1.0
  Ti  Ti956  1  0.18996615  0.67695448  0.41519730  1.0
  Ti  Ti957  1  0.18996615  0.81981163  0.41519730  1.0
  Ti  Ti958  1  0.18996615  0.96266877  0.41519730  1.0
  Ti  Ti959  1  0.30107726  0.10552591  0.41519730  1.0
  Ti  Ti960  1  0.30107726  0.24838305  0.41519730  1.0
  Ti  Ti961  1  0.30107726  0.39124020  0.41519730  1.0
  Ti  Ti962  1  0.30107726  0.53409734  0.41519730  1.0
  Ti  Ti963  1  0.30107726  0.67695448  0.41519730  1.0
  Ti  Ti964  1  0.30107726  0.81981163  0.41519730  1.0
  Ti  Ti965  1  0.30107726  0.96266877  0.41519730  1.0
  Ti  Ti966  1  0.41218837  0.10552591  0.41519730  1.0
  Ti  Ti967  1  0.41218837  0.24838305  0.41519730  1.0
  Ti  Ti968  1  0.41218837  0.39124020  0.41519730  1.0
  Ti  Ti969  1  0.41218837  0.53409734  0.41519730  1.0
  Ti  Ti970  1  0.41218837  0.67695448  0.41519730  1.0
  Ti  Ti971  1  0.41218837  0.81981163  0.41519730  1.0
  Ti  Ti972  1  0.41218837  0.96266877  0.41519730  1.0
  Ti  Ti973  1  0.52329948  0.10552591  0.41519730  1.0
  Ti  Ti974  1  0.52329948  0.24838305  0.41519730  1.0
  Ti  Ti975  1  0.52329948  0.39124020  0.41519730  1.0
  Ti  Ti976  1  0.52329948  0.53409734  0.41519730  1.0
  Ti  Ti977  1  0.52329948  0.67695448  0.41519730  1.0
  Ti  Ti978  1  0.52329948  0.81981163  0.41519730  1.0
  Ti  Ti979  1  0.52329948  0.96266877  0.41519730  1.0
  Ti  Ti980  1  0.63441059  0.10552591  0.41519730  1.0
  Ti  Ti981  1  0.63441059  0.24838305  0.41519730  1.0
  Ti  Ti982  1  0.63441059  0.39124020  0.41519730  1.0
  Ti  Ti983  1  0.63441059  0.53409734  0.41519730  1.0
  Ti  Ti984  1  0.63441059  0.67695448  0.41519730  1.0
  Ti  Ti985  1  0.63441059  0.81981163  0.41519730  1.0
  Ti  Ti986  1  0.63441059  0.96266877  0.41519730  1.0
  Ti  Ti987  1  0.74552171  0.10552591  0.41519730  1.0
  Ti  Ti988  1  0.74552171  0.24838305  0.41519730  1.0
  Ti  Ti989  1  0.74552171  0.39124020  0.41519730  1.0
  Ti  Ti990  1  0.74552171  0.53409734  0.41519730  1.0
  Ti  Ti991  1  0.74552171  0.67695448  0.41519730  1.0
  Ti  Ti992  1  0.74552171  0.81981163  0.41519730  1.0
  Ti  Ti993  1  0.74552171  0.96266877  0.41519730  1.0
  Ti  Ti994  1  0.85663282  0.10552591  0.41519730  1.0
  Ti  Ti995  1  0.85663282  0.24838305  0.41519730  1.0
  Ti  Ti996  1  0.85663282  0.39124020  0.41519730  1.0
  Ti  Ti997  1  0.85663282  0.53409734  0.41519730  1.0
  Ti  Ti998  1  0.85663282  0.67695448  0.41519730  1.0
  Ti  Ti999  1  0.85663282  0.81981163  0.41519730  1.0
  Ti  Ti1000  1  0.85663282  0.96266877  0.41519730  1.0
  Ti  Ti1001  1  0.96774393  0.10552591  0.41519730  1.0
  Ti  Ti1002  1  0.96774393  0.24838305  0.41519730  1.0
  Ti  Ti1003  1  0.96774393  0.39124020  0.41519730  1.0
  Ti  Ti1004  1  0.96774393  0.53409734  0.41519730  1.0
  Ti  Ti1005  1  0.96774393  0.67695448  0.41519730  1.0
  Ti  Ti1006  1  0.96774393  0.81981163  0.41519730  1.0
  Ti  Ti1007  1  0.96774393  0.96266877  0.41519730  1.0
  Ti  Ti1008  1  0.10001906  0.11913135  0.46281634  1.0
  Ti  Ti1009  1  0.10001906  0.26198850  0.46281634  1.0
  Ti  Ti1010  1  0.10001906  0.40484564  0.46281634  1.0
  Ti  Ti1011  1  0.10001906  0.54770278  0.46281634  1.0
  Ti  Ti1012  1  0.10001906  0.69055992  0.46281634  1.0
  Ti  Ti1013  1  0.10001906  0.83341707  0.46281634  1.0
  Ti  Ti1014  1  0.10001906  0.97627421  0.46281634  1.0
  Ti  Ti1015  1  0.21113017  0.11913135  0.46281634  1.0
  Ti  Ti1016  1  0.21113017  0.26198850  0.46281634  1.0
  Ti  Ti1017  1  0.21113017  0.40484564  0.46281634  1.0
  Ti  Ti1018  1  0.21113017  0.54770278  0.46281634  1.0
  Ti  Ti1019  1  0.21113017  0.69055992  0.46281634  1.0
  Ti  Ti1020  1  0.21113017  0.83341707  0.46281634  1.0
  Ti  Ti1021  1  0.21113017  0.97627421  0.46281634  1.0
  Ti  Ti1022  1  0.32224128  0.11913135  0.46281634  1.0
  Ti  Ti1023  1  0.32224128  0.26198850  0.46281634  1.0
  Ti  Ti1024  1  0.32224128  0.40484564  0.46281634  1.0
  Ti  Ti1025  1  0.32224128  0.54770278  0.46281634  1.0
  Ti  Ti1026  1  0.32224128  0.69055992  0.46281634  1.0
  Ti  Ti1027  1  0.32224128  0.83341707  0.46281634  1.0
  Ti  Ti1028  1  0.32224128  0.97627421  0.46281634  1.0
  Ti  Ti1029  1  0.43335239  0.11913135  0.46281634  1.0
  Ti  Ti1030  1  0.43335239  0.26198850  0.46281634  1.0
  Ti  Ti1031  1  0.43335239  0.40484564  0.46281634  1.0
  Ti  Ti1032  1  0.43335239  0.54770278  0.46281634  1.0
  Ti  Ti1033  1  0.43335239  0.69055992  0.46281634  1.0
  Ti  Ti1034  1  0.43335239  0.83341707  0.46281634  1.0
  Ti  Ti1035  1  0.43335239  0.97627421  0.46281634  1.0
  Ti  Ti1036  1  0.54446350  0.11913135  0.46281634  1.0
  Ti  Ti1037  1  0.54446350  0.26198850  0.46281634  1.0
  Ti  Ti1038  1  0.54446350  0.40484564  0.46281634  1.0
  Ti  Ti1039  1  0.54446350  0.54770278  0.46281634  1.0
  Ti  Ti1040  1  0.54446350  0.69055992  0.46281634  1.0
  Ti  Ti1041  1  0.54446350  0.83341707  0.46281634  1.0
  Ti  Ti1042  1  0.54446350  0.97627421  0.46281634  1.0
  Ti  Ti1043  1  0.65557462  0.11913135  0.46281634  1.0
  Ti  Ti1044  1  0.65557462  0.26198850  0.46281634  1.0
  Ti  Ti1045  1  0.65557462  0.40484564  0.46281634  1.0
  Ti  Ti1046  1  0.65557462  0.54770278  0.46281634  1.0
  Ti  Ti1047  1  0.65557462  0.69055992  0.46281634  1.0
  Ti  Ti1048  1  0.65557462  0.83341707  0.46281634  1.0
  Ti  Ti1049  1  0.65557462  0.97627421  0.46281634  1.0
  Ti  Ti1050  1  0.76668573  0.11913135  0.46281634  1.0
  Ti  Ti1051  1  0.76668573  0.26198850  0.46281634  1.0
  Ti  Ti1052  1  0.76668573  0.40484564  0.46281634  1.0
  Ti  Ti1053  1  0.76668573  0.54770278  0.46281634  1.0
  Ti  Ti1054  1  0.76668573  0.69055992  0.46281634  1.0
  Ti  Ti1055  1  0.76668573  0.83341707  0.46281634  1.0
  Ti  Ti1056  1  0.76668573  0.97627421  0.46281634  1.0
  Ti  Ti1057  1  0.87779684  0.11913135  0.46281634  1.0
  Ti  Ti1058  1  0.87779684  0.26198850  0.46281634  1.0
  Ti  Ti1059  1  0.87779684  0.40484564  0.46281634  1.0
  Ti  Ti1060  1  0.87779684  0.54770278  0.46281634  1.0
  Ti  Ti1061  1  0.87779684  0.69055992  0.46281634  1.0
  Ti  Ti1062  1  0.87779684  0.83341707  0.46281634  1.0
  Ti  Ti1063  1  0.87779684  0.97627421  0.46281634  1.0
  Ti  Ti1064  1  0.98890795  0.11913135  0.46281634  1.0
  Ti  Ti1065  1  0.98890795  0.26198850  0.46281634  1.0
  Ti  Ti1066  1  0.98890795  0.40484564  0.46281634  1.0
  Ti  Ti1067  1  0.98890795  0.54770278  0.46281634  1.0
  Ti  Ti1068  1  0.98890795  0.69055992  0.46281634  1.0
  Ti  Ti1069  1  0.98890795  0.83341707  0.46281634  1.0
  Ti  Ti1070  1  0.98890795  0.97627421  0.46281634  1.0
  Ti  Ti1071  1  0.05769102  0.09192047  0.36757825  1.0
  Ti  Ti1072  1  0.05769102  0.23477761  0.36757825  1.0
  Ti  Ti1073  1  0.05769102  0.37763475  0.36757825  1.0
  Ti  Ti1074  1  0.05769102  0.52049190  0.36757825  1.0
  Ti  Ti1075  1  0.05769102  0.66334904  0.36757825  1.0
  Ti  Ti1076  1  0.05769102  0.80620618  0.36757825  1.0
  Ti  Ti1077  1  0.05769102  0.94906333  0.36757825  1.0
  Ti  Ti1078  1  0.16880213  0.09192047  0.36757825  1.0
  Ti  Ti1079  1  0.16880213  0.23477761  0.36757825  1.0
  Ti  Ti1080  1  0.16880213  0.37763475  0.36757825  1.0
  Ti  Ti1081  1  0.16880213  0.52049190  0.36757825  1.0
  Ti  Ti1082  1  0.16880213  0.66334904  0.36757825  1.0
  Ti  Ti1083  1  0.16880213  0.80620618  0.36757825  1.0
  Ti  Ti1084  1  0.16880213  0.94906333  0.36757825  1.0
  Ti  Ti1085  1  0.27991324  0.09192047  0.36757825  1.0
  Ti  Ti1086  1  0.27991324  0.23477761  0.36757825  1.0
  Ti  Ti1087  1  0.27991324  0.37763475  0.36757825  1.0
  Ti  Ti1088  1  0.27991324  0.52049190  0.36757825  1.0
  Ti  Ti1089  1  0.27991324  0.66334904  0.36757825  1.0
  Ti  Ti1090  1  0.27991324  0.80620618  0.36757825  1.0
  Ti  Ti1091  1  0.27991324  0.94906333  0.36757825  1.0
  Ti  Ti1092  1  0.39102435  0.09192047  0.36757825  1.0
  Ti  Ti1093  1  0.39102435  0.23477761  0.36757825  1.0
  Ti  Ti1094  1  0.39102435  0.37763475  0.36757825  1.0
  Ti  Ti1095  1  0.39102435  0.52049190  0.36757825  1.0
  Ti  Ti1096  1  0.39102435  0.66334904  0.36757825  1.0
  Ti  Ti1097  1  0.39102435  0.80620618  0.36757825  1.0
  Ti  Ti1098  1  0.39102435  0.94906333  0.36757825  1.0
  Ti  Ti1099  1  0.50213546  0.09192047  0.36757825  1.0
  Ti  Ti1100  1  0.50213546  0.23477761  0.36757825  1.0
  Ti  Ti1101  1  0.50213546  0.37763475  0.36757825  1.0
  Ti  Ti1102  1  0.50213546  0.52049190  0.36757825  1.0
  Ti  Ti1103  1  0.50213546  0.66334904  0.36757825  1.0
  Ti  Ti1104  1  0.50213546  0.80620618  0.36757825  1.0
  Ti  Ti1105  1  0.50213546  0.94906333  0.36757825  1.0
  Ti  Ti1106  1  0.61324657  0.09192047  0.36757825  1.0
  Ti  Ti1107  1  0.61324657  0.23477761  0.36757825  1.0
  Ti  Ti1108  1  0.61324657  0.37763475  0.36757825  1.0
  Ti  Ti1109  1  0.61324657  0.52049190  0.36757825  1.0
  Ti  Ti1110  1  0.61324657  0.66334904  0.36757825  1.0
  Ti  Ti1111  1  0.61324657  0.80620618  0.36757825  1.0
  Ti  Ti1112  1  0.61324657  0.94906333  0.36757825  1.0
  Ti  Ti1113  1  0.72435768  0.09192047  0.36757825  1.0
  Ti  Ti1114  1  0.72435768  0.23477761  0.36757825  1.0
  Ti  Ti1115  1  0.72435768  0.37763475  0.36757825  1.0
  Ti  Ti1116  1  0.72435768  0.52049190  0.36757825  1.0
  Ti  Ti1117  1  0.72435768  0.66334904  0.36757825  1.0
  Ti  Ti1118  1  0.72435768  0.80620618  0.36757825  1.0
  Ti  Ti1119  1  0.72435768  0.94906333  0.36757825  1.0
  Ti  Ti1120  1  0.83546879  0.09192047  0.36757825  1.0
  Ti  Ti1121  1  0.83546879  0.23477761  0.36757825  1.0
  Ti  Ti1122  1  0.83546879  0.37763475  0.36757825  1.0
  Ti  Ti1123  1  0.83546879  0.52049190  0.36757825  1.0
  Ti  Ti1124  1  0.83546879  0.66334904  0.36757825  1.0
  Ti  Ti1125  1  0.83546879  0.80620618  0.36757825  1.0
  Ti  Ti1126  1  0.83546879  0.94906333  0.36757825  1.0
  Ti  Ti1127  1  0.94657991  0.09192047  0.36757825  1.0
  Ti  Ti1128  1  0.94657991  0.23477761  0.36757825  1.0
  Ti  Ti1129  1  0.94657991  0.37763475  0.36757825  1.0
  Ti  Ti1130  1  0.94657991  0.52049190  0.36757825  1.0
  Ti  Ti1131  1  0.94657991  0.66334904  0.36757825  1.0
  Ti  Ti1132  1  0.94657991  0.80620618  0.36757825  1.0
  Ti  Ti1133  1  0.94657991  0.94906333  0.36757825  1.0
  Ti  Ti1134  1  0.05449552  0.02097525  0.36926998  1.0
  Ti  Ti1135  1  0.05449552  0.16383239  0.36926998  1.0
  Ti  Ti1136  1  0.05449552  0.30668954  0.36926998  1.0
  Ti  Ti1137  1  0.05449552  0.44954668  0.36926998  1.0
  Ti  Ti1138  1  0.05449552  0.59240382  0.36926998  1.0
  Ti  Ti1139  1  0.05449552  0.73526096  0.36926998  1.0
  Ti  Ti1140  1  0.05449552  0.87811811  0.36926998  1.0
  Ti  Ti1141  1  0.16560663  0.02097525  0.36926998  1.0
  Ti  Ti1142  1  0.16560663  0.16383239  0.36926998  1.0
  Ti  Ti1143  1  0.16560663  0.30668954  0.36926998  1.0
  Ti  Ti1144  1  0.16560663  0.44954668  0.36926998  1.0
  Ti  Ti1145  1  0.16560663  0.59240382  0.36926998  1.0
  Ti  Ti1146  1  0.16560663  0.73526096  0.36926998  1.0
  Ti  Ti1147  1  0.16560663  0.87811811  0.36926998  1.0
  Ti  Ti1148  1  0.27671774  0.02097525  0.36926998  1.0
  Ti  Ti1149  1  0.27671774  0.16383239  0.36926998  1.0
  Ti  Ti1150  1  0.27671774  0.30668954  0.36926998  1.0
  Ti  Ti1151  1  0.27671774  0.44954668  0.36926998  1.0
  Ti  Ti1152  1  0.27671774  0.59240382  0.36926998  1.0
  Ti  Ti1153  1  0.27671774  0.73526096  0.36926998  1.0
  Ti  Ti1154  1  0.27671774  0.87811811  0.36926998  1.0
  Ti  Ti1155  1  0.38782885  0.02097525  0.36926998  1.0
  Ti  Ti1156  1  0.38782885  0.16383239  0.36926998  1.0
  Ti  Ti1157  1  0.38782885  0.30668954  0.36926998  1.0
  Ti  Ti1158  1  0.38782885  0.44954668  0.36926998  1.0
  Ti  Ti1159  1  0.38782885  0.59240382  0.36926998  1.0
  Ti  Ti1160  1  0.38782885  0.73526096  0.36926998  1.0
  Ti  Ti1161  1  0.38782885  0.87811811  0.36926998  1.0
  Ti  Ti1162  1  0.49893997  0.02097525  0.36926998  1.0
  Ti  Ti1163  1  0.49893997  0.16383239  0.36926998  1.0
  Ti  Ti1164  1  0.49893997  0.30668954  0.36926998  1.0
  Ti  Ti1165  1  0.49893997  0.44954668  0.36926998  1.0
  Ti  Ti1166  1  0.49893997  0.59240382  0.36926998  1.0
  Ti  Ti1167  1  0.49893997  0.73526096  0.36926998  1.0
  Ti  Ti1168  1  0.49893997  0.87811811  0.36926998  1.0
  Ti  Ti1169  1  0.61005108  0.02097525  0.36926998  1.0
  Ti  Ti1170  1  0.61005108  0.16383239  0.36926998  1.0
  Ti  Ti1171  1  0.61005108  0.30668954  0.36926998  1.0
  Ti  Ti1172  1  0.61005108  0.44954668  0.36926998  1.0
  Ti  Ti1173  1  0.61005108  0.59240382  0.36926998  1.0
  Ti  Ti1174  1  0.61005108  0.73526096  0.36926998  1.0
  Ti  Ti1175  1  0.61005108  0.87811811  0.36926998  1.0
  Ti  Ti1176  1  0.72116219  0.02097525  0.36926998  1.0
  Ti  Ti1177  1  0.72116219  0.16383239  0.36926998  1.0
  Ti  Ti1178  1  0.72116219  0.30668954  0.36926998  1.0
  Ti  Ti1179  1  0.72116219  0.44954668  0.36926998  1.0
  Ti  Ti1180  1  0.72116219  0.59240382  0.36926998  1.0
  Ti  Ti1181  1  0.72116219  0.73526096  0.36926998  1.0
  Ti  Ti1182  1  0.72116219  0.87811811  0.36926998  1.0
  Ti  Ti1183  1  0.83227330  0.02097525  0.36926998  1.0
  Ti  Ti1184  1  0.83227330  0.16383239  0.36926998  1.0
  Ti  Ti1185  1  0.83227330  0.30668954  0.36926998  1.0
  Ti  Ti1186  1  0.83227330  0.44954668  0.36926998  1.0
  Ti  Ti1187  1  0.83227330  0.59240382  0.36926998  1.0
  Ti  Ti1188  1  0.83227330  0.73526096  0.36926998  1.0
  Ti  Ti1189  1  0.83227330  0.87811811  0.36926998  1.0
  Ti  Ti1190  1  0.94338441  0.02097525  0.36926998  1.0
  Ti  Ti1191  1  0.94338441  0.16383239  0.36926998  1.0
  Ti  Ti1192  1  0.94338441  0.30668954  0.36926998  1.0
  Ti  Ti1193  1  0.94338441  0.44954668  0.36926998  1.0
  Ti  Ti1194  1  0.94338441  0.59240382  0.36926998  1.0
  Ti  Ti1195  1  0.94338441  0.73526096  0.36926998  1.0
  Ti  Ti1196  1  0.94338441  0.87811811  0.36926998  1.0
  Ti  Ti1197  1  0.07565954  0.03458069  0.41688903  1.0
  Ti  Ti1198  1  0.07565954  0.17743783  0.41688903  1.0
  Ti  Ti1199  1  0.07565954  0.32029498  0.41688903  1.0
  Ti  Ti1200  1  0.07565954  0.46315212  0.41688903  1.0
  Ti  Ti1201  1  0.07565954  0.60600926  0.41688903  1.0
  Ti  Ti1202  1  0.07565954  0.74886641  0.41688903  1.0
  Ti  Ti1203  1  0.07565954  0.89172355  0.41688903  1.0
  Ti  Ti1204  1  0.18677065  0.03458069  0.41688903  1.0
  Ti  Ti1205  1  0.18677065  0.17743783  0.41688903  1.0
  Ti  Ti1206  1  0.18677065  0.32029498  0.41688903  1.0
  Ti  Ti1207  1  0.18677065  0.46315212  0.41688903  1.0
  Ti  Ti1208  1  0.18677065  0.60600926  0.41688903  1.0
  Ti  Ti1209  1  0.18677065  0.74886641  0.41688903  1.0
  Ti  Ti1210  1  0.18677065  0.89172355  0.41688903  1.0
  Ti  Ti1211  1  0.29788176  0.03458069  0.41688903  1.0
  Ti  Ti1212  1  0.29788176  0.17743783  0.41688903  1.0
  Ti  Ti1213  1  0.29788176  0.32029498  0.41688903  1.0
  Ti  Ti1214  1  0.29788176  0.46315212  0.41688903  1.0
  Ti  Ti1215  1  0.29788176  0.60600926  0.41688903  1.0
  Ti  Ti1216  1  0.29788176  0.74886641  0.41688903  1.0
  Ti  Ti1217  1  0.29788176  0.89172355  0.41688903  1.0
  Ti  Ti1218  1  0.40899288  0.03458069  0.41688903  1.0
  Ti  Ti1219  1  0.40899288  0.17743783  0.41688903  1.0
  Ti  Ti1220  1  0.40899288  0.32029498  0.41688903  1.0
  Ti  Ti1221  1  0.40899288  0.46315212  0.41688903  1.0
  Ti  Ti1222  1  0.40899288  0.60600926  0.41688903  1.0
  Ti  Ti1223  1  0.40899288  0.74886641  0.41688903  1.0
  Ti  Ti1224  1  0.40899288  0.89172355  0.41688903  1.0
  Ti  Ti1225  1  0.52010399  0.03458069  0.41688903  1.0
  Ti  Ti1226  1  0.52010399  0.17743783  0.41688903  1.0
  Ti  Ti1227  1  0.52010399  0.32029498  0.41688903  1.0
  Ti  Ti1228  1  0.52010399  0.46315212  0.41688903  1.0
  Ti  Ti1229  1  0.52010399  0.60600926  0.41688903  1.0
  Ti  Ti1230  1  0.52010399  0.74886641  0.41688903  1.0
  Ti  Ti1231  1  0.52010399  0.89172355  0.41688903  1.0
  Ti  Ti1232  1  0.63121510  0.03458069  0.41688903  1.0
  Ti  Ti1233  1  0.63121510  0.17743783  0.41688903  1.0
  Ti  Ti1234  1  0.63121510  0.32029498  0.41688903  1.0
  Ti  Ti1235  1  0.63121510  0.46315212  0.41688903  1.0
  Ti  Ti1236  1  0.63121510  0.60600926  0.41688903  1.0
  Ti  Ti1237  1  0.63121510  0.74886641  0.41688903  1.0
  Ti  Ti1238  1  0.63121510  0.89172355  0.41688903  1.0
  Ti  Ti1239  1  0.74232621  0.03458069  0.41688903  1.0
  Ti  Ti1240  1  0.74232621  0.17743783  0.41688903  1.0
  Ti  Ti1241  1  0.74232621  0.32029498  0.41688903  1.0
  Ti  Ti1242  1  0.74232621  0.46315212  0.41688903  1.0
  Ti  Ti1243  1  0.74232621  0.60600926  0.41688903  1.0
  Ti  Ti1244  1  0.74232621  0.74886641  0.41688903  1.0
  Ti  Ti1245  1  0.74232621  0.89172355  0.41688903  1.0
  Ti  Ti1246  1  0.85343732  0.03458069  0.41688903  1.0
  Ti  Ti1247  1  0.85343732  0.17743783  0.41688903  1.0
  Ti  Ti1248  1  0.85343732  0.32029498  0.41688903  1.0
  Ti  Ti1249  1  0.85343732  0.46315212  0.41688903  1.0
  Ti  Ti1250  1  0.85343732  0.60600926  0.41688903  1.0
  Ti  Ti1251  1  0.85343732  0.74886641  0.41688903  1.0
  Ti  Ti1252  1  0.85343732  0.89172355  0.41688903  1.0
  Ti  Ti1253  1  0.96454843  0.03458069  0.41688903  1.0
  Ti  Ti1254  1  0.96454843  0.17743783  0.41688903  1.0
  Ti  Ti1255  1  0.96454843  0.32029498  0.41688903  1.0
  Ti  Ti1256  1  0.96454843  0.46315212  0.41688903  1.0
  Ti  Ti1257  1  0.96454843  0.60600926  0.41688903  1.0
  Ti  Ti1258  1  0.96454843  0.74886641  0.41688903  1.0
  Ti  Ti1259  1  0.96454843  0.89172355  0.41688903  1.0
  Ti  Ti1260  1  0.09682356  0.04818613  0.46450808  1.0
  Ti  Ti1261  1  0.09682356  0.19104328  0.46450808  1.0
  Ti  Ti1262  1  0.09682356  0.33390042  0.46450808  1.0
  Ti  Ti1263  1  0.09682356  0.47675756  0.46450808  1.0
  Ti  Ti1264  1  0.09682356  0.61961471  0.46450808  1.0
  Ti  Ti1265  1  0.09682356  0.76247185  0.46450808  1.0
  Ti  Ti1266  1  0.09682356  0.90532899  0.46450808  1.0
  Ti  Ti1267  1  0.20793467  0.04818613  0.46450808  1.0
  Ti  Ti1268  1  0.20793467  0.19104328  0.46450808  1.0
  Ti  Ti1269  1  0.20793467  0.33390042  0.46450808  1.0
  Ti  Ti1270  1  0.20793467  0.47675756  0.46450808  1.0
  Ti  Ti1271  1  0.20793467  0.61961471  0.46450808  1.0
  Ti  Ti1272  1  0.20793467  0.76247185  0.46450808  1.0
  Ti  Ti1273  1  0.20793467  0.90532899  0.46450808  1.0
  Ti  Ti1274  1  0.31904579  0.04818613  0.46450808  1.0
  Ti  Ti1275  1  0.31904579  0.19104328  0.46450808  1.0
  Ti  Ti1276  1  0.31904579  0.33390042  0.46450808  1.0
  Ti  Ti1277  1  0.31904579  0.47675756  0.46450808  1.0
  Ti  Ti1278  1  0.31904579  0.61961471  0.46450808  1.0
  Ti  Ti1279  1  0.31904579  0.76247185  0.46450808  1.0
  Ti  Ti1280  1  0.31904579  0.90532899  0.46450808  1.0
  Ti  Ti1281  1  0.43015690  0.04818613  0.46450808  1.0
  Ti  Ti1282  1  0.43015690  0.19104328  0.46450808  1.0
  Ti  Ti1283  1  0.43015690  0.33390042  0.46450808  1.0
  Ti  Ti1284  1  0.43015690  0.47675756  0.46450808  1.0
  Ti  Ti1285  1  0.43015690  0.61961471  0.46450808  1.0
  Ti  Ti1286  1  0.43015690  0.76247185  0.46450808  1.0
  Ti  Ti1287  1  0.43015690  0.90532899  0.46450808  1.0
  Ti  Ti1288  1  0.54126801  0.04818613  0.46450808  1.0
  Ti  Ti1289  1  0.54126801  0.19104328  0.46450808  1.0
  Ti  Ti1290  1  0.54126801  0.33390042  0.46450808  1.0
  Ti  Ti1291  1  0.54126801  0.47675756  0.46450808  1.0
  Ti  Ti1292  1  0.54126801  0.61961471  0.46450808  1.0
  Ti  Ti1293  1  0.54126801  0.76247185  0.46450808  1.0
  Ti  Ti1294  1  0.54126801  0.90532899  0.46450808  1.0
  Ti  Ti1295  1  0.65237912  0.04818613  0.46450808  1.0
  Ti  Ti1296  1  0.65237912  0.19104328  0.46450808  1.0
  Ti  Ti1297  1  0.65237912  0.33390042  0.46450808  1.0
  Ti  Ti1298  1  0.65237912  0.47675756  0.46450808  1.0
  Ti  Ti1299  1  0.65237912  0.61961471  0.46450808  1.0
  Ti  Ti1300  1  0.65237912  0.76247185  0.46450808  1.0
  Ti  Ti1301  1  0.65237912  0.90532899  0.46450808  1.0
  Ti  Ti1302  1  0.76349023  0.04818613  0.46450808  1.0
  Ti  Ti1303  1  0.76349023  0.19104328  0.46450808  1.0
  Ti  Ti1304  1  0.76349023  0.33390042  0.46450808  1.0
  Ti  Ti1305  1  0.76349023  0.47675756  0.46450808  1.0
  Ti  Ti1306  1  0.76349023  0.61961471  0.46450808  1.0
  Ti  Ti1307  1  0.76349023  0.76247185  0.46450808  1.0
  Ti  Ti1308  1  0.76349023  0.90532899  0.46450808  1.0
  Ti  Ti1309  1  0.87460134  0.04818613  0.46450808  1.0
  Ti  Ti1310  1  0.87460134  0.19104328  0.46450808  1.0
  Ti  Ti1311  1  0.87460134  0.33390042  0.46450808  1.0
  Ti  Ti1312  1  0.87460134  0.47675756  0.46450808  1.0
  Ti  Ti1313  1  0.87460134  0.61961471  0.46450808  1.0
  Ti  Ti1314  1  0.87460134  0.76247185  0.46450808  1.0
  Ti  Ti1315  1  0.87460134  0.90532899  0.46450808  1.0
  Ti  Ti1316  1  0.98571245  0.04818613  0.46450808  1.0
  Ti  Ti1317  1  0.98571245  0.19104328  0.46450808  1.0
  Ti  Ti1318  1  0.98571245  0.33390042  0.46450808  1.0
  Ti  Ti1319  1  0.98571245  0.47675756  0.46450808  1.0
  Ti  Ti1320  1  0.98571245  0.61961471  0.46450808  1.0
  Ti  Ti1321  1  0.98571245  0.76247185  0.46450808  1.0
  Ti  Ti1322  1  0.98571245  0.90532899  0.46450808  1.0
  Ti  Ti1323  1  0.03742043  0.09071584  0.44696943  1.0
  Ti  Ti1324  1  0.03742043  0.23357298  0.44696943  1.0
  Ti  Ti1325  1  0.03742043  0.37643013  0.44696943  1.0
  Ti  Ti1326  1  0.03742043  0.51928727  0.44696943  1.0
  Ti  Ti1327  1  0.03742043  0.66214441  0.44696943  1.0
  Ti  Ti1328  1  0.03742043  0.80500155  0.44696943  1.0
  Ti  Ti1329  1  0.03742043  0.94785870  0.44696943  1.0
  Ti  Ti1330  1  0.14853154  0.09071584  0.44696943  1.0
  Ti  Ti1331  1  0.14853154  0.23357298  0.44696943  1.0
  Ti  Ti1332  1  0.14853154  0.37643013  0.44696943  1.0
  Ti  Ti1333  1  0.14853154  0.51928727  0.44696943  1.0
  Ti  Ti1334  1  0.14853154  0.66214441  0.44696943  1.0
  Ti  Ti1335  1  0.14853154  0.80500155  0.44696943  1.0
  Ti  Ti1336  1  0.14853154  0.94785870  0.44696943  1.0
  Ti  Ti1337  1  0.25964265  0.09071584  0.44696943  1.0
  Ti  Ti1338  1  0.25964265  0.23357298  0.44696943  1.0
  Ti  Ti1339  1  0.25964265  0.37643013  0.44696943  1.0
  Ti  Ti1340  1  0.25964265  0.51928727  0.44696943  1.0
  Ti  Ti1341  1  0.25964265  0.66214441  0.44696943  1.0
  Ti  Ti1342  1  0.25964265  0.80500155  0.44696943  1.0
  Ti  Ti1343  1  0.25964265  0.94785870  0.44696943  1.0
  Ti  Ti1344  1  0.37075376  0.09071584  0.44696943  1.0
  Ti  Ti1345  1  0.37075376  0.23357298  0.44696943  1.0
  Ti  Ti1346  1  0.37075376  0.37643013  0.44696943  1.0
  Ti  Ti1347  1  0.37075376  0.51928727  0.44696943  1.0
  Ti  Ti1348  1  0.37075376  0.66214441  0.44696943  1.0
  Ti  Ti1349  1  0.37075376  0.80500155  0.44696943  1.0
  Ti  Ti1350  1  0.37075376  0.94785870  0.44696943  1.0
  Ti  Ti1351  1  0.48186487  0.09071584  0.44696943  1.0
  Ti  Ti1352  1  0.48186487  0.23357298  0.44696943  1.0
  Ti  Ti1353  1  0.48186487  0.37643013  0.44696943  1.0
  Ti  Ti1354  1  0.48186487  0.51928727  0.44696943  1.0
  Ti  Ti1355  1  0.48186487  0.66214441  0.44696943  1.0
  Ti  Ti1356  1  0.48186487  0.80500155  0.44696943  1.0
  Ti  Ti1357  1  0.48186487  0.94785870  0.44696943  1.0
  Ti  Ti1358  1  0.59297599  0.09071584  0.44696943  1.0
  Ti  Ti1359  1  0.59297599  0.23357298  0.44696943  1.0
  Ti  Ti1360  1  0.59297599  0.37643013  0.44696943  1.0
  Ti  Ti1361  1  0.59297599  0.51928727  0.44696943  1.0
  Ti  Ti1362  1  0.59297599  0.66214441  0.44696943  1.0
  Ti  Ti1363  1  0.59297599  0.80500155  0.44696943  1.0
  Ti  Ti1364  1  0.59297599  0.94785870  0.44696943  1.0
  Ti  Ti1365  1  0.70408710  0.09071584  0.44696943  1.0
  Ti  Ti1366  1  0.70408710  0.23357298  0.44696943  1.0
  Ti  Ti1367  1  0.70408710  0.37643013  0.44696943  1.0
  Ti  Ti1368  1  0.70408710  0.51928727  0.44696943  1.0
  Ti  Ti1369  1  0.70408710  0.66214441  0.44696943  1.0
  Ti  Ti1370  1  0.70408710  0.80500155  0.44696943  1.0
  Ti  Ti1371  1  0.70408710  0.94785870  0.44696943  1.0
  Ti  Ti1372  1  0.81519821  0.09071584  0.44696943  1.0
  Ti  Ti1373  1  0.81519821  0.23357298  0.44696943  1.0
  Ti  Ti1374  1  0.81519821  0.37643013  0.44696943  1.0
  Ti  Ti1375  1  0.81519821  0.51928727  0.44696943  1.0
  Ti  Ti1376  1  0.81519821  0.66214441  0.44696943  1.0
  Ti  Ti1377  1  0.81519821  0.80500155  0.44696943  1.0
  Ti  Ti1378  1  0.81519821  0.94785870  0.44696943  1.0
  Ti  Ti1379  1  0.92630932  0.09071584  0.44696943  1.0
  Ti  Ti1380  1  0.92630932  0.23357298  0.44696943  1.0
  Ti  Ti1381  1  0.92630932  0.37643013  0.44696943  1.0
  Ti  Ti1382  1  0.92630932  0.51928727  0.44696943  1.0
  Ti  Ti1383  1  0.92630932  0.66214441  0.44696943  1.0
  Ti  Ti1384  1  0.92630932  0.80500155  0.44696943  1.0
  Ti  Ti1385  1  0.92630932  0.94785870  0.44696943  1.0
  Ti  Ti1386  1  0.05858445  0.10432128  0.49458848  1.0
  Ti  Ti1387  1  0.05858445  0.24717842  0.49458848  1.0
  Ti  Ti1388  1  0.05858445  0.39003557  0.49458848  1.0
  Ti  Ti1389  1  0.05858445  0.53289271  0.49458848  1.0
  Ti  Ti1390  1  0.05858445  0.67574985  0.49458848  1.0
  Ti  Ti1391  1  0.05858445  0.81860700  0.49458848  1.0
  Ti  Ti1392  1  0.05858445  0.96146414  0.49458848  1.0
  Ti  Ti1393  1  0.16969556  0.10432128  0.49458848  1.0
  Ti  Ti1394  1  0.16969556  0.24717842  0.49458848  1.0
  Ti  Ti1395  1  0.16969556  0.39003557  0.49458848  1.0
  Ti  Ti1396  1  0.16969556  0.53289271  0.49458848  1.0
  Ti  Ti1397  1  0.16969556  0.67574985  0.49458848  1.0
  Ti  Ti1398  1  0.16969556  0.81860700  0.49458848  1.0
  Ti  Ti1399  1  0.16969556  0.96146414  0.49458848  1.0
  Ti  Ti1400  1  0.28080667  0.10432128  0.49458848  1.0
  Ti  Ti1401  1  0.28080667  0.24717842  0.49458848  1.0
  Ti  Ti1402  1  0.28080667  0.39003557  0.49458848  1.0
  Ti  Ti1403  1  0.28080667  0.53289271  0.49458848  1.0
  Ti  Ti1404  1  0.28080667  0.67574985  0.49458848  1.0
  Ti  Ti1405  1  0.28080667  0.81860700  0.49458848  1.0
  Ti  Ti1406  1  0.28080667  0.96146414  0.49458848  1.0
  Ti  Ti1407  1  0.39191778  0.10432128  0.49458848  1.0
  Ti  Ti1408  1  0.39191778  0.24717842  0.49458848  1.0
  Ti  Ti1409  1  0.39191778  0.39003557  0.49458848  1.0
  Ti  Ti1410  1  0.39191778  0.53289271  0.49458848  1.0
  Ti  Ti1411  1  0.39191778  0.67574985  0.49458848  1.0
  Ti  Ti1412  1  0.39191778  0.81860700  0.49458848  1.0
  Ti  Ti1413  1  0.39191778  0.96146414  0.49458848  1.0
  Ti  Ti1414  1  0.50302890  0.10432128  0.49458848  1.0
  Ti  Ti1415  1  0.50302890  0.24717842  0.49458848  1.0
  Ti  Ti1416  1  0.50302890  0.39003557  0.49458848  1.0
  Ti  Ti1417  1  0.50302890  0.53289271  0.49458848  1.0
  Ti  Ti1418  1  0.50302890  0.67574985  0.49458848  1.0
  Ti  Ti1419  1  0.50302890  0.81860700  0.49458848  1.0
  Ti  Ti1420  1  0.50302890  0.96146414  0.49458848  1.0
  Ti  Ti1421  1  0.61414001  0.10432128  0.49458848  1.0
  Ti  Ti1422  1  0.61414001  0.24717842  0.49458848  1.0
  Ti  Ti1423  1  0.61414001  0.39003557  0.49458848  1.0
  Ti  Ti1424  1  0.61414001  0.53289271  0.49458848  1.0
  Ti  Ti1425  1  0.61414001  0.67574985  0.49458848  1.0
  Ti  Ti1426  1  0.61414001  0.81860700  0.49458848  1.0
  Ti  Ti1427  1  0.61414001  0.96146414  0.49458848  1.0
  Ti  Ti1428  1  0.72525112  0.10432128  0.49458848  1.0
  Ti  Ti1429  1  0.72525112  0.24717842  0.49458848  1.0
  Ti  Ti1430  1  0.72525112  0.39003557  0.49458848  1.0
  Ti  Ti1431  1  0.72525112  0.53289271  0.49458848  1.0
  Ti  Ti1432  1  0.72525112  0.67574985  0.49458848  1.0
  Ti  Ti1433  1  0.72525112  0.81860700  0.49458848  1.0
  Ti  Ti1434  1  0.72525112  0.96146414  0.49458848  1.0
  Ti  Ti1435  1  0.83636223  0.10432128  0.49458848  1.0
  Ti  Ti1436  1  0.83636223  0.24717842  0.49458848  1.0
  Ti  Ti1437  1  0.83636223  0.39003557  0.49458848  1.0
  Ti  Ti1438  1  0.83636223  0.53289271  0.49458848  1.0
  Ti  Ti1439  1  0.83636223  0.67574985  0.49458848  1.0
  Ti  Ti1440  1  0.83636223  0.81860700  0.49458848  1.0
  Ti  Ti1441  1  0.83636223  0.96146414  0.49458848  1.0
  Ti  Ti1442  1  0.94747334  0.10432128  0.49458848  1.0
  Ti  Ti1443  1  0.94747334  0.24717842  0.49458848  1.0
  Ti  Ti1444  1  0.94747334  0.39003557  0.49458848  1.0
  Ti  Ti1445  1  0.94747334  0.53289271  0.49458848  1.0
  Ti  Ti1446  1  0.94747334  0.67574985  0.49458848  1.0
  Ti  Ti1447  1  0.94747334  0.81860700  0.49458848  1.0
  Ti  Ti1448  1  0.94747334  0.96146414  0.49458848  1.0
  Ti  Ti1449  1  0.01625641  0.07711040  0.39935038  1.0
  Ti  Ti1450  1  0.01625641  0.21996754  0.39935038  1.0
  Ti  Ti1451  1  0.01625641  0.36282468  0.39935038  1.0
  Ti  Ti1452  1  0.01625641  0.50568183  0.39935038  1.0
  Ti  Ti1453  1  0.01625641  0.64853897  0.39935038  1.0
  Ti  Ti1454  1  0.01625641  0.79139611  0.39935038  1.0
  Ti  Ti1455  1  0.01625641  0.93425325  0.39935038  1.0
  Ti  Ti1456  1  0.12736752  0.07711040  0.39935038  1.0
  Ti  Ti1457  1  0.12736752  0.21996754  0.39935038  1.0
  Ti  Ti1458  1  0.12736752  0.36282468  0.39935038  1.0
  Ti  Ti1459  1  0.12736752  0.50568183  0.39935038  1.0
  Ti  Ti1460  1  0.12736752  0.64853897  0.39935038  1.0
  Ti  Ti1461  1  0.12736752  0.79139611  0.39935038  1.0
  Ti  Ti1462  1  0.12736752  0.93425325  0.39935038  1.0
  Ti  Ti1463  1  0.23847863  0.07711040  0.39935038  1.0
  Ti  Ti1464  1  0.23847863  0.21996754  0.39935038  1.0
  Ti  Ti1465  1  0.23847863  0.36282468  0.39935038  1.0
  Ti  Ti1466  1  0.23847863  0.50568183  0.39935038  1.0
  Ti  Ti1467  1  0.23847863  0.64853897  0.39935038  1.0
  Ti  Ti1468  1  0.23847863  0.79139611  0.39935038  1.0
  Ti  Ti1469  1  0.23847863  0.93425325  0.39935038  1.0
  Ti  Ti1470  1  0.34958974  0.07711040  0.39935038  1.0
  Ti  Ti1471  1  0.34958974  0.21996754  0.39935038  1.0
  Ti  Ti1472  1  0.34958974  0.36282468  0.39935038  1.0
  Ti  Ti1473  1  0.34958974  0.50568183  0.39935038  1.0
  Ti  Ti1474  1  0.34958974  0.64853897  0.39935038  1.0
  Ti  Ti1475  1  0.34958974  0.79139611  0.39935038  1.0
  Ti  Ti1476  1  0.34958974  0.93425325  0.39935038  1.0
  Ti  Ti1477  1  0.46070085  0.07711040  0.39935038  1.0
  Ti  Ti1478  1  0.46070085  0.21996754  0.39935038  1.0
  Ti  Ti1479  1  0.46070085  0.36282468  0.39935038  1.0
  Ti  Ti1480  1  0.46070085  0.50568183  0.39935038  1.0
  Ti  Ti1481  1  0.46070085  0.64853897  0.39935038  1.0
  Ti  Ti1482  1  0.46070085  0.79139611  0.39935038  1.0
  Ti  Ti1483  1  0.46070085  0.93425325  0.39935038  1.0
  Ti  Ti1484  1  0.57181196  0.07711040  0.39935038  1.0
  Ti  Ti1485  1  0.57181196  0.21996754  0.39935038  1.0
  Ti  Ti1486  1  0.57181196  0.36282468  0.39935038  1.0
  Ti  Ti1487  1  0.57181196  0.50568183  0.39935038  1.0
  Ti  Ti1488  1  0.57181196  0.64853897  0.39935038  1.0
  Ti  Ti1489  1  0.57181196  0.79139611  0.39935038  1.0
  Ti  Ti1490  1  0.57181196  0.93425325  0.39935038  1.0
  Ti  Ti1491  1  0.68292308  0.07711040  0.39935038  1.0
  Ti  Ti1492  1  0.68292308  0.21996754  0.39935038  1.0
  Ti  Ti1493  1  0.68292308  0.36282468  0.39935038  1.0
  Ti  Ti1494  1  0.68292308  0.50568183  0.39935038  1.0
  Ti  Ti1495  1  0.68292308  0.64853897  0.39935038  1.0
  Ti  Ti1496  1  0.68292308  0.79139611  0.39935038  1.0
  Ti  Ti1497  1  0.68292308  0.93425325  0.39935038  1.0
  Ti  Ti1498  1  0.79403419  0.07711040  0.39935038  1.0
  Ti  Ti1499  1  0.79403419  0.21996754  0.39935038  1.0
  Ti  Ti1500  1  0.79403419  0.36282468  0.39935038  1.0
  Ti  Ti1501  1  0.79403419  0.50568183  0.39935038  1.0
  Ti  Ti1502  1  0.79403419  0.64853897  0.39935038  1.0
  Ti  Ti1503  1  0.79403419  0.79139611  0.39935038  1.0
  Ti  Ti1504  1  0.79403419  0.93425325  0.39935038  1.0
  Ti  Ti1505  1  0.90514530  0.07711040  0.39935038  1.0
  Ti  Ti1506  1  0.90514530  0.21996754  0.39935038  1.0
  Ti  Ti1507  1  0.90514530  0.36282468  0.39935038  1.0
  Ti  Ti1508  1  0.90514530  0.50568183  0.39935038  1.0
  Ti  Ti1509  1  0.90514530  0.64853897  0.39935038  1.0
  Ti  Ti1510  1  0.90514530  0.79139611  0.39935038  1.0
  Ti  Ti1511  1  0.90514530  0.93425325  0.39935038  1.0
  Ti  Ti1512  1  0.07655298  0.04698151  0.54389926  1.0
  Ti  Ti1513  1  0.07655298  0.18983865  0.54389926  1.0
  Ti  Ti1514  1  0.07655298  0.33269579  0.54389926  1.0
  Ti  Ti1515  1  0.07655298  0.47555293  0.54389926  1.0
  Ti  Ti1516  1  0.07655298  0.61841008  0.54389926  1.0
  Ti  Ti1517  1  0.07655298  0.76126722  0.54389926  1.0
  Ti  Ti1518  1  0.07655298  0.90412436  0.54389926  1.0
  Ti  Ti1519  1  0.18766409  0.04698151  0.54389926  1.0
  Ti  Ti1520  1  0.18766409  0.18983865  0.54389926  1.0
  Ti  Ti1521  1  0.18766409  0.33269579  0.54389926  1.0
  Ti  Ti1522  1  0.18766409  0.47555293  0.54389926  1.0
  Ti  Ti1523  1  0.18766409  0.61841008  0.54389926  1.0
  Ti  Ti1524  1  0.18766409  0.76126722  0.54389926  1.0
  Ti  Ti1525  1  0.18766409  0.90412436  0.54389926  1.0
  Ti  Ti1526  1  0.29877520  0.04698151  0.54389926  1.0
  Ti  Ti1527  1  0.29877520  0.18983865  0.54389926  1.0
  Ti  Ti1528  1  0.29877520  0.33269579  0.54389926  1.0
  Ti  Ti1529  1  0.29877520  0.47555293  0.54389926  1.0
  Ti  Ti1530  1  0.29877520  0.61841008  0.54389926  1.0
  Ti  Ti1531  1  0.29877520  0.76126722  0.54389926  1.0
  Ti  Ti1532  1  0.29877520  0.90412436  0.54389926  1.0
  Ti  Ti1533  1  0.40988631  0.04698151  0.54389926  1.0
  Ti  Ti1534  1  0.40988631  0.18983865  0.54389926  1.0
  Ti  Ti1535  1  0.40988631  0.33269579  0.54389926  1.0
  Ti  Ti1536  1  0.40988631  0.47555293  0.54389926  1.0
  Ti  Ti1537  1  0.40988631  0.61841008  0.54389926  1.0
  Ti  Ti1538  1  0.40988631  0.76126722  0.54389926  1.0
  Ti  Ti1539  1  0.40988631  0.90412436  0.54389926  1.0
  Ti  Ti1540  1  0.52099742  0.04698151  0.54389926  1.0
  Ti  Ti1541  1  0.52099742  0.18983865  0.54389926  1.0
  Ti  Ti1542  1  0.52099742  0.33269579  0.54389926  1.0
  Ti  Ti1543  1  0.52099742  0.47555293  0.54389926  1.0
  Ti  Ti1544  1  0.52099742  0.61841008  0.54389926  1.0
  Ti  Ti1545  1  0.52099742  0.76126722  0.54389926  1.0
  Ti  Ti1546  1  0.52099742  0.90412436  0.54389926  1.0
  Ti  Ti1547  1  0.63210853  0.04698151  0.54389926  1.0
  Ti  Ti1548  1  0.63210853  0.18983865  0.54389926  1.0
  Ti  Ti1549  1  0.63210853  0.33269579  0.54389926  1.0
  Ti  Ti1550  1  0.63210853  0.47555293  0.54389926  1.0
  Ti  Ti1551  1  0.63210853  0.61841008  0.54389926  1.0
  Ti  Ti1552  1  0.63210853  0.76126722  0.54389926  1.0
  Ti  Ti1553  1  0.63210853  0.90412436  0.54389926  1.0
  Ti  Ti1554  1  0.74321964  0.04698151  0.54389926  1.0
  Ti  Ti1555  1  0.74321964  0.18983865  0.54389926  1.0
  Ti  Ti1556  1  0.74321964  0.33269579  0.54389926  1.0
  Ti  Ti1557  1  0.74321964  0.47555293  0.54389926  1.0
  Ti  Ti1558  1  0.74321964  0.61841008  0.54389926  1.0
  Ti  Ti1559  1  0.74321964  0.76126722  0.54389926  1.0
  Ti  Ti1560  1  0.74321964  0.90412436  0.54389926  1.0
  Ti  Ti1561  1  0.85433075  0.04698151  0.54389926  1.0
  Ti  Ti1562  1  0.85433075  0.18983865  0.54389926  1.0
  Ti  Ti1563  1  0.85433075  0.33269579  0.54389926  1.0
  Ti  Ti1564  1  0.85433075  0.47555293  0.54389926  1.0
  Ti  Ti1565  1  0.85433075  0.61841008  0.54389926  1.0
  Ti  Ti1566  1  0.85433075  0.76126722  0.54389926  1.0
  Ti  Ti1567  1  0.85433075  0.90412436  0.54389926  1.0
  Ti  Ti1568  1  0.96544187  0.04698151  0.54389926  1.0
  Ti  Ti1569  1  0.96544186  0.18983865  0.54389926  1.0
  Ti  Ti1570  1  0.96544186  0.33269579  0.54389926  1.0
  Ti  Ti1571  1  0.96544186  0.47555293  0.54389926  1.0
  Ti  Ti1572  1  0.96544187  0.61841008  0.54389926  1.0
  Ti  Ti1573  1  0.96544187  0.76126722  0.54389926  1.0
  Ti  Ti1574  1  0.96544187  0.90412436  0.54389926  1.0
  Ti  Ti1575  1  0.09771700  0.06058695  0.59151830  1.0
  Ti  Ti1576  1  0.09771700  0.20344409  0.59151830  1.0
  Ti  Ti1577  1  0.09771700  0.34630123  0.59151830  1.0
  Ti  Ti1578  1  0.09771700  0.48915838  0.59151830  1.0
  Ti  Ti1579  1  0.09771700  0.63201552  0.59151830  1.0
  Ti  Ti1580  1  0.09771700  0.77487266  0.59151830  1.0
  Ti  Ti1581  1  0.09771700  0.91772980  0.59151830  1.0
  Ti  Ti1582  1  0.20882811  0.06058695  0.59151830  1.0
  Ti  Ti1583  1  0.20882811  0.20344409  0.59151830  1.0
  Ti  Ti1584  1  0.20882811  0.34630123  0.59151830  1.0
  Ti  Ti1585  1  0.20882811  0.48915838  0.59151830  1.0
  Ti  Ti1586  1  0.20882811  0.63201552  0.59151830  1.0
  Ti  Ti1587  1  0.20882811  0.77487266  0.59151830  1.0
  Ti  Ti1588  1  0.20882811  0.91772980  0.59151830  1.0
  Ti  Ti1589  1  0.31993922  0.06058695  0.59151830  1.0
  Ti  Ti1590  1  0.31993922  0.20344409  0.59151830  1.0
  Ti  Ti1591  1  0.31993922  0.34630123  0.59151830  1.0
  Ti  Ti1592  1  0.31993922  0.48915838  0.59151830  1.0
  Ti  Ti1593  1  0.31993922  0.63201552  0.59151830  1.0
  Ti  Ti1594  1  0.31993922  0.77487266  0.59151830  1.0
  Ti  Ti1595  1  0.31993922  0.91772980  0.59151830  1.0
  Ti  Ti1596  1  0.43105033  0.06058695  0.59151830  1.0
  Ti  Ti1597  1  0.43105033  0.20344409  0.59151830  1.0
  Ti  Ti1598  1  0.43105033  0.34630123  0.59151830  1.0
  Ti  Ti1599  1  0.43105033  0.48915838  0.59151830  1.0
  Ti  Ti1600  1  0.43105033  0.63201552  0.59151830  1.0
  Ti  Ti1601  1  0.43105033  0.77487266  0.59151830  1.0
  Ti  Ti1602  1  0.43105033  0.91772980  0.59151830  1.0
  Ti  Ti1603  1  0.54216144  0.06058695  0.59151830  1.0
  Ti  Ti1604  1  0.54216144  0.20344409  0.59151830  1.0
  Ti  Ti1605  1  0.54216144  0.34630123  0.59151830  1.0
  Ti  Ti1606  1  0.54216144  0.48915838  0.59151830  1.0
  Ti  Ti1607  1  0.54216144  0.63201552  0.59151830  1.0
  Ti  Ti1608  1  0.54216144  0.77487266  0.59151830  1.0
  Ti  Ti1609  1  0.54216144  0.91772980  0.59151830  1.0
  Ti  Ti1610  1  0.65327255  0.06058695  0.59151830  1.0
  Ti  Ti1611  1  0.65327255  0.20344409  0.59151830  1.0
  Ti  Ti1612  1  0.65327255  0.34630123  0.59151830  1.0
  Ti  Ti1613  1  0.65327255  0.48915838  0.59151830  1.0
  Ti  Ti1614  1  0.65327255  0.63201552  0.59151830  1.0
  Ti  Ti1615  1  0.65327255  0.77487266  0.59151830  1.0
  Ti  Ti1616  1  0.65327255  0.91772980  0.59151830  1.0
  Ti  Ti1617  1  0.76438366  0.06058695  0.59151830  1.0
  Ti  Ti1618  1  0.76438366  0.20344409  0.59151830  1.0
  Ti  Ti1619  1  0.76438366  0.34630123  0.59151830  1.0
  Ti  Ti1620  1  0.76438366  0.48915838  0.59151830  1.0
  Ti  Ti1621  1  0.76438366  0.63201552  0.59151830  1.0
  Ti  Ti1622  1  0.76438366  0.77487266  0.59151830  1.0
  Ti  Ti1623  1  0.76438366  0.91772980  0.59151830  1.0
  Ti  Ti1624  1  0.87549478  0.06058695  0.59151830  1.0
  Ti  Ti1625  1  0.87549478  0.20344409  0.59151830  1.0
  Ti  Ti1626  1  0.87549478  0.34630123  0.59151830  1.0
  Ti  Ti1627  1  0.87549478  0.48915838  0.59151830  1.0
  Ti  Ti1628  1  0.87549478  0.63201552  0.59151830  1.0
  Ti  Ti1629  1  0.87549478  0.77487266  0.59151830  1.0
  Ti  Ti1630  1  0.87549478  0.91772980  0.59151830  1.0
  Ti  Ti1631  1  0.98660589  0.06058695  0.59151830  1.0
  Ti  Ti1632  1  0.98660589  0.20344409  0.59151830  1.0
  Ti  Ti1633  1  0.98660589  0.34630123  0.59151830  1.0
  Ti  Ti1634  1  0.98660589  0.48915838  0.59151830  1.0
  Ti  Ti1635  1  0.98660589  0.63201552  0.59151830  1.0
  Ti  Ti1636  1  0.98660589  0.77487266  0.59151830  1.0
  Ti  Ti1637  1  0.98660589  0.91772980  0.59151830  1.0
  Ti  Ti1638  1  0.00776991  0.07419239  0.63913735  1.0
  Ti  Ti1639  1  0.00776991  0.21704953  0.63913735  1.0
  Ti  Ti1640  1  0.00776991  0.35990668  0.63913735  1.0
  Ti  Ti1641  1  0.00776991  0.50276382  0.63913735  1.0
  Ti  Ti1642  1  0.00776991  0.64562096  0.63913735  1.0
  Ti  Ti1643  1  0.00776991  0.78847810  0.63913735  1.0
  Ti  Ti1644  1  0.00776991  0.93133525  0.63913735  1.0
  Ti  Ti1645  1  0.11888102  0.07419239  0.63913735  1.0
  Ti  Ti1646  1  0.11888102  0.21704953  0.63913735  1.0
  Ti  Ti1647  1  0.11888102  0.35990668  0.63913735  1.0
  Ti  Ti1648  1  0.11888102  0.50276382  0.63913735  1.0
  Ti  Ti1649  1  0.11888102  0.64562096  0.63913735  1.0
  Ti  Ti1650  1  0.11888102  0.78847810  0.63913735  1.0
  Ti  Ti1651  1  0.11888102  0.93133525  0.63913735  1.0
  Ti  Ti1652  1  0.22999213  0.07419239  0.63913735  1.0
  Ti  Ti1653  1  0.22999213  0.21704953  0.63913735  1.0
  Ti  Ti1654  1  0.22999213  0.35990668  0.63913735  1.0
  Ti  Ti1655  1  0.22999213  0.50276382  0.63913735  1.0
  Ti  Ti1656  1  0.22999213  0.64562096  0.63913735  1.0
  Ti  Ti1657  1  0.22999213  0.78847810  0.63913735  1.0
  Ti  Ti1658  1  0.22999213  0.93133525  0.63913735  1.0
  Ti  Ti1659  1  0.34110324  0.07419239  0.63913735  1.0
  Ti  Ti1660  1  0.34110324  0.21704953  0.63913735  1.0
  Ti  Ti1661  1  0.34110324  0.35990668  0.63913735  1.0
  Ti  Ti1662  1  0.34110324  0.50276382  0.63913735  1.0
  Ti  Ti1663  1  0.34110324  0.64562096  0.63913735  1.0
  Ti  Ti1664  1  0.34110324  0.78847810  0.63913735  1.0
  Ti  Ti1665  1  0.34110324  0.93133525  0.63913735  1.0
  Ti  Ti1666  1  0.45221435  0.07419239  0.63913735  1.0
  Ti  Ti1667  1  0.45221435  0.21704953  0.63913735  1.0
  Ti  Ti1668  1  0.45221435  0.35990668  0.63913735  1.0
  Ti  Ti1669  1  0.45221435  0.50276382  0.63913735  1.0
  Ti  Ti1670  1  0.45221435  0.64562096  0.63913735  1.0
  Ti  Ti1671  1  0.45221435  0.78847810  0.63913735  1.0
  Ti  Ti1672  1  0.45221435  0.93133525  0.63913735  1.0
  Ti  Ti1673  1  0.56332546  0.07419239  0.63913735  1.0
  Ti  Ti1674  1  0.56332546  0.21704953  0.63913735  1.0
  Ti  Ti1675  1  0.56332546  0.35990668  0.63913735  1.0
  Ti  Ti1676  1  0.56332546  0.50276382  0.63913735  1.0
  Ti  Ti1677  1  0.56332546  0.64562096  0.63913735  1.0
  Ti  Ti1678  1  0.56332546  0.78847810  0.63913735  1.0
  Ti  Ti1679  1  0.56332546  0.93133525  0.63913735  1.0
  Ti  Ti1680  1  0.67443657  0.07419239  0.63913735  1.0
  Ti  Ti1681  1  0.67443657  0.21704953  0.63913735  1.0
  Ti  Ti1682  1  0.67443657  0.35990668  0.63913735  1.0
  Ti  Ti1683  1  0.67443657  0.50276382  0.63913735  1.0
  Ti  Ti1684  1  0.67443657  0.64562096  0.63913735  1.0
  Ti  Ti1685  1  0.67443657  0.78847810  0.63913735  1.0
  Ti  Ti1686  1  0.67443657  0.93133525  0.63913735  1.0
  Ti  Ti1687  1  0.78554769  0.07419239  0.63913735  1.0
  Ti  Ti1688  1  0.78554769  0.21704953  0.63913735  1.0
  Ti  Ti1689  1  0.78554769  0.35990668  0.63913735  1.0
  Ti  Ti1690  1  0.78554769  0.50276382  0.63913735  1.0
  Ti  Ti1691  1  0.78554769  0.64562096  0.63913735  1.0
  Ti  Ti1692  1  0.78554769  0.78847810  0.63913735  1.0
  Ti  Ti1693  1  0.78554769  0.93133525  0.63913735  1.0
  Ti  Ti1694  1  0.89665880  0.07419239  0.63913735  1.0
  Ti  Ti1695  1  0.89665880  0.21704953  0.63913735  1.0
  Ti  Ti1696  1  0.89665880  0.35990668  0.63913735  1.0
  Ti  Ti1697  1  0.89665880  0.50276382  0.63913735  1.0
  Ti  Ti1698  1  0.89665880  0.64562096  0.63913735  1.0
  Ti  Ti1699  1  0.89665880  0.78847810  0.63913735  1.0
  Ti  Ti1700  1  0.89665880  0.93133525  0.63913735  1.0
  Ti  Ti1701  1  0.03123599  0.00348509  0.55805444  1.0
  Ti  Ti1702  1  0.03123599  0.14634224  0.55805444  1.0
  Ti  Ti1703  1  0.03123599  0.28919938  0.55805444  1.0
  Ti  Ti1704  1  0.03123599  0.43205652  0.55805444  1.0
  Ti  Ti1705  1  0.03123599  0.57491367  0.55805444  1.0
  Ti  Ti1706  1  0.03123599  0.71777081  0.55805444  1.0
  Ti  Ti1707  1  0.03123599  0.86062795  0.55805444  1.0
  Ti  Ti1708  1  0.14234710  0.00348509  0.55805444  1.0
  Ti  Ti1709  1  0.14234710  0.14634224  0.55805444  1.0
  Ti  Ti1710  1  0.14234710  0.28919938  0.55805444  1.0
  Ti  Ti1711  1  0.14234710  0.43205652  0.55805444  1.0
  Ti  Ti1712  1  0.14234710  0.57491367  0.55805444  1.0
  Ti  Ti1713  1  0.14234710  0.71777081  0.55805444  1.0
  Ti  Ti1714  1  0.14234710  0.86062795  0.55805444  1.0
  Ti  Ti1715  1  0.25345821  0.00348509  0.55805444  1.0
  Ti  Ti1716  1  0.25345821  0.14634224  0.55805444  1.0
  Ti  Ti1717  1  0.25345821  0.28919938  0.55805444  1.0
  Ti  Ti1718  1  0.25345821  0.43205652  0.55805444  1.0
  Ti  Ti1719  1  0.25345821  0.57491367  0.55805444  1.0
  Ti  Ti1720  1  0.25345821  0.71777081  0.55805444  1.0
  Ti  Ti1721  1  0.25345821  0.86062795  0.55805444  1.0
  Ti  Ti1722  1  0.36456932  0.00348509  0.55805444  1.0
  Ti  Ti1723  1  0.36456932  0.14634224  0.55805444  1.0
  Ti  Ti1724  1  0.36456932  0.28919938  0.55805444  1.0
  Ti  Ti1725  1  0.36456932  0.43205652  0.55805444  1.0
  Ti  Ti1726  1  0.36456932  0.57491367  0.55805444  1.0
  Ti  Ti1727  1  0.36456932  0.71777081  0.55805444  1.0
  Ti  Ti1728  1  0.36456932  0.86062795  0.55805444  1.0
  Ti  Ti1729  1  0.47568044  0.00348509  0.55805444  1.0
  Ti  Ti1730  1  0.47568044  0.14634224  0.55805444  1.0
  Ti  Ti1731  1  0.47568044  0.28919938  0.55805444  1.0
  Ti  Ti1732  1  0.47568044  0.43205652  0.55805444  1.0
  Ti  Ti1733  1  0.47568044  0.57491367  0.55805444  1.0
  Ti  Ti1734  1  0.47568044  0.71777081  0.55805444  1.0
  Ti  Ti1735  1  0.47568044  0.86062795  0.55805444  1.0
  Ti  Ti1736  1  0.58679155  0.00348509  0.55805444  1.0
  Ti  Ti1737  1  0.58679155  0.14634224  0.55805444  1.0
  Ti  Ti1738  1  0.58679155  0.28919938  0.55805444  1.0
  Ti  Ti1739  1  0.58679155  0.43205652  0.55805444  1.0
  Ti  Ti1740  1  0.58679155  0.57491367  0.55805444  1.0
  Ti  Ti1741  1  0.58679155  0.71777081  0.55805444  1.0
  Ti  Ti1742  1  0.58679155  0.86062795  0.55805444  1.0
  Ti  Ti1743  1  0.69790266  0.00348509  0.55805444  1.0
  Ti  Ti1744  1  0.69790266  0.14634224  0.55805444  1.0
  Ti  Ti1745  1  0.69790266  0.28919938  0.55805444  1.0
  Ti  Ti1746  1  0.69790266  0.43205652  0.55805444  1.0
  Ti  Ti1747  1  0.69790266  0.57491367  0.55805444  1.0
  Ti  Ti1748  1  0.69790266  0.71777081  0.55805444  1.0
  Ti  Ti1749  1  0.69790266  0.86062795  0.55805444  1.0
  Ti  Ti1750  1  0.80901377  0.00348509  0.55805444  1.0
  Ti  Ti1751  1  0.80901377  0.14634224  0.55805444  1.0
  Ti  Ti1752  1  0.80901377  0.28919938  0.55805444  1.0
  Ti  Ti1753  1  0.80901377  0.43205652  0.55805444  1.0
  Ti  Ti1754  1  0.80901377  0.57491367  0.55805444  1.0
  Ti  Ti1755  1  0.80901377  0.71777081  0.55805444  1.0
  Ti  Ti1756  1  0.80901377  0.86062795  0.55805444  1.0
  Ti  Ti1757  1  0.92012488  0.00348509  0.55805444  1.0
  Ti  Ti1758  1  0.92012488  0.14634224  0.55805444  1.0
  Ti  Ti1759  1  0.92012488  0.28919938  0.55805444  1.0
  Ti  Ti1760  1  0.92012488  0.43205652  0.55805444  1.0
  Ti  Ti1761  1  0.92012488  0.57491367  0.55805444  1.0
  Ti  Ti1762  1  0.92012488  0.71777081  0.55805444  1.0
  Ti  Ti1763  1  0.92012488  0.86062795  0.55805444  1.0
  Ti  Ti1764  1  0.05240001  0.01709054  0.60567349  1.0
  Ti  Ti1765  1  0.05240001  0.15994768  0.60567349  1.0
  Ti  Ti1766  1  0.05240001  0.30280482  0.60567349  1.0
  Ti  Ti1767  1  0.05240001  0.44566197  0.60567349  1.0
  Ti  Ti1768  1  0.05240001  0.58851911  0.60567349  1.0
  Ti  Ti1769  1  0.05240001  0.73137625  0.60567349  1.0
  Ti  Ti1770  1  0.05240001  0.87423339  0.60567349  1.0
  Ti  Ti1771  1  0.16351112  0.01709054  0.60567349  1.0
  Ti  Ti1772  1  0.16351112  0.15994768  0.60567349  1.0
  Ti  Ti1773  1  0.16351112  0.30280482  0.60567349  1.0
  Ti  Ti1774  1  0.16351112  0.44566197  0.60567349  1.0
  Ti  Ti1775  1  0.16351112  0.58851911  0.60567349  1.0
  Ti  Ti1776  1  0.16351112  0.73137625  0.60567349  1.0
  Ti  Ti1777  1  0.16351112  0.87423339  0.60567349  1.0
  Ti  Ti1778  1  0.27462223  0.01709054  0.60567349  1.0
  Ti  Ti1779  1  0.27462223  0.15994768  0.60567349  1.0
  Ti  Ti1780  1  0.27462223  0.30280482  0.60567349  1.0
  Ti  Ti1781  1  0.27462223  0.44566197  0.60567349  1.0
  Ti  Ti1782  1  0.27462223  0.58851911  0.60567349  1.0
  Ti  Ti1783  1  0.27462223  0.73137625  0.60567349  1.0
  Ti  Ti1784  1  0.27462223  0.87423339  0.60567349  1.0
  Ti  Ti1785  1  0.38573335  0.01709054  0.60567349  1.0
  Ti  Ti1786  1  0.38573335  0.15994768  0.60567349  1.0
  Ti  Ti1787  1  0.38573335  0.30280482  0.60567349  1.0
  Ti  Ti1788  1  0.38573335  0.44566197  0.60567349  1.0
  Ti  Ti1789  1  0.38573335  0.58851911  0.60567349  1.0
  Ti  Ti1790  1  0.38573335  0.73137625  0.60567349  1.0
  Ti  Ti1791  1  0.38573335  0.87423339  0.60567349  1.0
  Ti  Ti1792  1  0.49684446  0.01709054  0.60567349  1.0
  Ti  Ti1793  1  0.49684446  0.15994768  0.60567349  1.0
  Ti  Ti1794  1  0.49684446  0.30280482  0.60567349  1.0
  Ti  Ti1795  1  0.49684446  0.44566197  0.60567349  1.0
  Ti  Ti1796  1  0.49684446  0.58851911  0.60567349  1.0
  Ti  Ti1797  1  0.49684446  0.73137625  0.60567349  1.0
  Ti  Ti1798  1  0.49684446  0.87423339  0.60567349  1.0
  Ti  Ti1799  1  0.60795557  0.01709054  0.60567349  1.0
  Ti  Ti1800  1  0.60795557  0.15994768  0.60567349  1.0
  Ti  Ti1801  1  0.60795557  0.30280482  0.60567349  1.0
  Ti  Ti1802  1  0.60795557  0.44566197  0.60567349  1.0
  Ti  Ti1803  1  0.60795557  0.58851911  0.60567349  1.0
  Ti  Ti1804  1  0.60795557  0.73137625  0.60567349  1.0
  Ti  Ti1805  1  0.60795557  0.87423339  0.60567349  1.0
  Ti  Ti1806  1  0.71906668  0.01709054  0.60567349  1.0
  Ti  Ti1807  1  0.71906668  0.15994768  0.60567349  1.0
  Ti  Ti1808  1  0.71906668  0.30280482  0.60567349  1.0
  Ti  Ti1809  1  0.71906668  0.44566197  0.60567349  1.0
  Ti  Ti1810  1  0.71906668  0.58851911  0.60567349  1.0
  Ti  Ti1811  1  0.71906668  0.73137625  0.60567349  1.0
  Ti  Ti1812  1  0.71906668  0.87423339  0.60567349  1.0
  Ti  Ti1813  1  0.83017779  0.01709054  0.60567349  1.0
  Ti  Ti1814  1  0.83017779  0.15994768  0.60567349  1.0
  Ti  Ti1815  1  0.83017779  0.30280482  0.60567349  1.0
  Ti  Ti1816  1  0.83017779  0.44566197  0.60567349  1.0
  Ti  Ti1817  1  0.83017779  0.58851911  0.60567349  1.0
  Ti  Ti1818  1  0.83017779  0.73137625  0.60567349  1.0
  Ti  Ti1819  1  0.83017779  0.87423339  0.60567349  1.0
  Ti  Ti1820  1  0.94128890  0.01709054  0.60567349  1.0
  Ti  Ti1821  1  0.94128890  0.15994768  0.60567349  1.0
  Ti  Ti1822  1  0.94128890  0.30280482  0.60567349  1.0
  Ti  Ti1823  1  0.94128890  0.44566197  0.60567349  1.0
  Ti  Ti1824  1  0.94128890  0.58851911  0.60567349  1.0
  Ti  Ti1825  1  0.94128890  0.73137625  0.60567349  1.0
  Ti  Ti1826  1  0.94128890  0.87423339  0.60567349  1.0
  Ti  Ti1827  1  0.01007197  0.13273680  0.51043539  1.0
  Ti  Ti1828  1  0.01007197  0.27559394  0.51043539  1.0
  Ti  Ti1829  1  0.01007197  0.41845108  0.51043539  1.0
  Ti  Ti1830  1  0.01007197  0.56130822  0.51043539  1.0
  Ti  Ti1831  1  0.01007197  0.70416537  0.51043539  1.0
  Ti  Ti1832  1  0.01007197  0.84702251  0.51043539  1.0
  Ti  Ti1833  1  0.01007197  0.98987965  0.51043539  1.0
  Ti  Ti1834  1  0.12118308  0.13273680  0.51043539  1.0
  Ti  Ti1835  1  0.12118308  0.27559394  0.51043539  1.0
  Ti  Ti1836  1  0.12118308  0.41845108  0.51043539  1.0
  Ti  Ti1837  1  0.12118308  0.56130822  0.51043539  1.0
  Ti  Ti1838  1  0.12118308  0.70416537  0.51043539  1.0
  Ti  Ti1839  1  0.12118308  0.84702251  0.51043539  1.0
  Ti  Ti1840  1  0.12118308  0.98987965  0.51043539  1.0
  Ti  Ti1841  1  0.23229419  0.13273680  0.51043539  1.0
  Ti  Ti1842  1  0.23229419  0.27559394  0.51043539  1.0
  Ti  Ti1843  1  0.23229419  0.41845108  0.51043539  1.0
  Ti  Ti1844  1  0.23229419  0.56130822  0.51043539  1.0
  Ti  Ti1845  1  0.23229419  0.70416537  0.51043539  1.0
  Ti  Ti1846  1  0.23229419  0.84702251  0.51043539  1.0
  Ti  Ti1847  1  0.23229419  0.98987965  0.51043539  1.0
  Ti  Ti1848  1  0.34340530  0.13273680  0.51043539  1.0
  Ti  Ti1849  1  0.34340530  0.27559394  0.51043539  1.0
  Ti  Ti1850  1  0.34340530  0.41845108  0.51043539  1.0
  Ti  Ti1851  1  0.34340530  0.56130822  0.51043539  1.0
  Ti  Ti1852  1  0.34340530  0.70416537  0.51043539  1.0
  Ti  Ti1853  1  0.34340530  0.84702251  0.51043539  1.0
  Ti  Ti1854  1  0.34340530  0.98987965  0.51043539  1.0
  Ti  Ti1855  1  0.45451641  0.13273680  0.51043539  1.0
  Ti  Ti1856  1  0.45451641  0.27559394  0.51043539  1.0
  Ti  Ti1857  1  0.45451641  0.41845108  0.51043539  1.0
  Ti  Ti1858  1  0.45451641  0.56130822  0.51043539  1.0
  Ti  Ti1859  1  0.45451641  0.70416537  0.51043539  1.0
  Ti  Ti1860  1  0.45451641  0.84702251  0.51043539  1.0
  Ti  Ti1861  1  0.45451641  0.98987965  0.51043539  1.0
  Ti  Ti1862  1  0.56562753  0.13273680  0.51043539  1.0
  Ti  Ti1863  1  0.56562753  0.27559394  0.51043539  1.0
  Ti  Ti1864  1  0.56562753  0.41845108  0.51043539  1.0
  Ti  Ti1865  1  0.56562753  0.56130822  0.51043539  1.0
  Ti  Ti1866  1  0.56562753  0.70416537  0.51043539  1.0
  Ti  Ti1867  1  0.56562753  0.84702251  0.51043539  1.0
  Ti  Ti1868  1  0.56562753  0.98987965  0.51043539  1.0
  Ti  Ti1869  1  0.67673864  0.13273680  0.51043539  1.0
  Ti  Ti1870  1  0.67673864  0.27559394  0.51043539  1.0
  Ti  Ti1871  1  0.67673864  0.41845108  0.51043539  1.0
  Ti  Ti1872  1  0.67673864  0.56130822  0.51043539  1.0
  Ti  Ti1873  1  0.67673864  0.70416537  0.51043539  1.0
  Ti  Ti1874  1  0.67673864  0.84702251  0.51043539  1.0
  Ti  Ti1875  1  0.67673864  0.98987965  0.51043539  1.0
  Ti  Ti1876  1  0.78784975  0.13273680  0.51043539  1.0
  Ti  Ti1877  1  0.78784975  0.27559394  0.51043539  1.0
  Ti  Ti1878  1  0.78784975  0.41845108  0.51043539  1.0
  Ti  Ti1879  1  0.78784975  0.56130822  0.51043539  1.0
  Ti  Ti1880  1  0.78784975  0.70416537  0.51043539  1.0
  Ti  Ti1881  1  0.78784975  0.84702251  0.51043539  1.0
  Ti  Ti1882  1  0.78784975  0.98987965  0.51043539  1.0
  Ti  Ti1883  1  0.89896086  0.13273680  0.51043539  1.0
  Ti  Ti1884  1  0.89896086  0.27559394  0.51043539  1.0
  Ti  Ti1885  1  0.89896086  0.41845108  0.51043539  1.0
  Ti  Ti1886  1  0.89896086  0.56130822  0.51043539  1.0
  Ti  Ti1887  1  0.89896086  0.70416537  0.51043539  1.0
  Ti  Ti1888  1  0.89896086  0.84702251  0.51043539  1.0
  Ti  Ti1889  1  0.89896086  0.98987965  0.51043539  1.0
  Ti  Ti1890  1  0.00687647  0.06179158  0.51212713  1.0
  Ti  Ti1891  1  0.00687647  0.20464872  0.51212713  1.0
  Ti  Ti1892  1  0.00687647  0.34750586  0.51212713  1.0
  Ti  Ti1893  1  0.00687647  0.49036300  0.51212713  1.0
  Ti  Ti1894  1  0.00687647  0.63322015  0.51212713  1.0
  Ti  Ti1895  1  0.00687647  0.77607729  0.51212713  1.0
  Ti  Ti1896  1  0.00687647  0.91893443  0.51212713  1.0
  Ti  Ti1897  1  0.11798758  0.06179158  0.51212713  1.0
  Ti  Ti1898  1  0.11798758  0.20464872  0.51212713  1.0
  Ti  Ti1899  1  0.11798758  0.34750586  0.51212713  1.0
  Ti  Ti1900  1  0.11798758  0.49036300  0.51212713  1.0
  Ti  Ti1901  1  0.11798758  0.63322015  0.51212713  1.0
  Ti  Ti1902  1  0.11798758  0.77607729  0.51212713  1.0
  Ti  Ti1903  1  0.11798758  0.91893443  0.51212713  1.0
  Ti  Ti1904  1  0.22909870  0.06179158  0.51212713  1.0
  Ti  Ti1905  1  0.22909870  0.20464872  0.51212713  1.0
  Ti  Ti1906  1  0.22909870  0.34750586  0.51212713  1.0
  Ti  Ti1907  1  0.22909870  0.49036300  0.51212713  1.0
  Ti  Ti1908  1  0.22909870  0.63322015  0.51212713  1.0
  Ti  Ti1909  1  0.22909870  0.77607729  0.51212713  1.0
  Ti  Ti1910  1  0.22909870  0.91893443  0.51212713  1.0
  Ti  Ti1911  1  0.34020981  0.06179158  0.51212713  1.0
  Ti  Ti1912  1  0.34020981  0.20464872  0.51212713  1.0
  Ti  Ti1913  1  0.34020981  0.34750586  0.51212713  1.0
  Ti  Ti1914  1  0.34020981  0.49036300  0.51212713  1.0
  Ti  Ti1915  1  0.34020981  0.63322015  0.51212713  1.0
  Ti  Ti1916  1  0.34020981  0.77607729  0.51212713  1.0
  Ti  Ti1917  1  0.34020981  0.91893443  0.51212713  1.0
  Ti  Ti1918  1  0.45132092  0.06179158  0.51212713  1.0
  Ti  Ti1919  1  0.45132092  0.20464872  0.51212713  1.0
  Ti  Ti1920  1  0.45132092  0.34750586  0.51212713  1.0
  Ti  Ti1921  1  0.45132092  0.49036300  0.51212713  1.0
  Ti  Ti1922  1  0.45132092  0.63322015  0.51212713  1.0
  Ti  Ti1923  1  0.45132092  0.77607729  0.51212713  1.0
  Ti  Ti1924  1  0.45132092  0.91893443  0.51212713  1.0
  Ti  Ti1925  1  0.56243203  0.06179158  0.51212713  1.0
  Ti  Ti1926  1  0.56243203  0.20464872  0.51212713  1.0
  Ti  Ti1927  1  0.56243203  0.34750586  0.51212713  1.0
  Ti  Ti1928  1  0.56243203  0.49036300  0.51212713  1.0
  Ti  Ti1929  1  0.56243203  0.63322015  0.51212713  1.0
  Ti  Ti1930  1  0.56243203  0.77607729  0.51212713  1.0
  Ti  Ti1931  1  0.56243203  0.91893443  0.51212713  1.0
  Ti  Ti1932  1  0.67354314  0.06179158  0.51212713  1.0
  Ti  Ti1933  1  0.67354314  0.20464872  0.51212713  1.0
  Ti  Ti1934  1  0.67354314  0.34750586  0.51212713  1.0
  Ti  Ti1935  1  0.67354314  0.49036300  0.51212713  1.0
  Ti  Ti1936  1  0.67354314  0.63322015  0.51212713  1.0
  Ti  Ti1937  1  0.67354314  0.77607729  0.51212713  1.0
  Ti  Ti1938  1  0.67354314  0.91893443  0.51212713  1.0
  Ti  Ti1939  1  0.78465425  0.06179158  0.51212713  1.0
  Ti  Ti1940  1  0.78465425  0.20464872  0.51212713  1.0
  Ti  Ti1941  1  0.78465425  0.34750586  0.51212713  1.0
  Ti  Ti1942  1  0.78465425  0.49036300  0.51212713  1.0
  Ti  Ti1943  1  0.78465425  0.63322015  0.51212713  1.0
  Ti  Ti1944  1  0.78465425  0.77607729  0.51212713  1.0
  Ti  Ti1945  1  0.78465425  0.91893443  0.51212713  1.0
  Ti  Ti1946  1  0.89576536  0.06179158  0.51212713  1.0
  Ti  Ti1947  1  0.89576536  0.20464872  0.51212713  1.0
  Ti  Ti1948  1  0.89576536  0.34750586  0.51212713  1.0
  Ti  Ti1949  1  0.89576536  0.49036300  0.51212713  1.0
  Ti  Ti1950  1  0.89576536  0.63322015  0.51212713  1.0
  Ti  Ti1951  1  0.89576536  0.77607729  0.51212713  1.0
  Ti  Ti1952  1  0.89576536  0.91893443  0.51212713  1.0
  Ti  Ti1953  1  0.02804049  0.07539702  0.55974617  1.0
  Ti  Ti1954  1  0.02804049  0.21825416  0.55974617  1.0
  Ti  Ti1955  1  0.02804049  0.36111130  0.55974617  1.0
  Ti  Ti1956  1  0.02804049  0.50396845  0.55974617  1.0
  Ti  Ti1957  1  0.02804049  0.64682559  0.55974617  1.0
  Ti  Ti1958  1  0.02804049  0.78968273  0.55974617  1.0
  Ti  Ti1959  1  0.02804049  0.93253988  0.55974617  1.0
  Ti  Ti1960  1  0.13915161  0.07539702  0.55974617  1.0
  Ti  Ti1961  1  0.13915161  0.21825416  0.55974617  1.0
  Ti  Ti1962  1  0.13915161  0.36111130  0.55974617  1.0
  Ti  Ti1963  1  0.13915161  0.50396845  0.55974617  1.0
  Ti  Ti1964  1  0.13915161  0.64682559  0.55974617  1.0
  Ti  Ti1965  1  0.13915161  0.78968273  0.55974617  1.0
  Ti  Ti1966  1  0.13915161  0.93253988  0.55974617  1.0
  Ti  Ti1967  1  0.25026272  0.07539702  0.55974617  1.0
  Ti  Ti1968  1  0.25026272  0.21825416  0.55974617  1.0
  Ti  Ti1969  1  0.25026272  0.36111130  0.55974617  1.0
  Ti  Ti1970  1  0.25026272  0.50396845  0.55974617  1.0
  Ti  Ti1971  1  0.25026272  0.64682559  0.55974617  1.0
  Ti  Ti1972  1  0.25026272  0.78968273  0.55974617  1.0
  Ti  Ti1973  1  0.25026272  0.93253988  0.55974617  1.0
  Ti  Ti1974  1  0.36137383  0.07539702  0.55974617  1.0
  Ti  Ti1975  1  0.36137383  0.21825416  0.55974617  1.0
  Ti  Ti1976  1  0.36137383  0.36111130  0.55974617  1.0
  Ti  Ti1977  1  0.36137383  0.50396845  0.55974617  1.0
  Ti  Ti1978  1  0.36137383  0.64682559  0.55974617  1.0
  Ti  Ti1979  1  0.36137383  0.78968273  0.55974617  1.0
  Ti  Ti1980  1  0.36137383  0.93253988  0.55974617  1.0
  Ti  Ti1981  1  0.47248494  0.07539702  0.55974617  1.0
  Ti  Ti1982  1  0.47248494  0.21825416  0.55974617  1.0
  Ti  Ti1983  1  0.47248494  0.36111130  0.55974617  1.0
  Ti  Ti1984  1  0.47248494  0.50396845  0.55974617  1.0
  Ti  Ti1985  1  0.47248494  0.64682559  0.55974617  1.0
  Ti  Ti1986  1  0.47248494  0.78968273  0.55974617  1.0
  Ti  Ti1987  1  0.47248494  0.93253988  0.55974617  1.0
  Ti  Ti1988  1  0.58359605  0.07539702  0.55974617  1.0
  Ti  Ti1989  1  0.58359605  0.21825416  0.55974617  1.0
  Ti  Ti1990  1  0.58359605  0.36111130  0.55974617  1.0
  Ti  Ti1991  1  0.58359605  0.50396845  0.55974617  1.0
  Ti  Ti1992  1  0.58359605  0.64682559  0.55974617  1.0
  Ti  Ti1993  1  0.58359605  0.78968273  0.55974617  1.0
  Ti  Ti1994  1  0.58359605  0.93253988  0.55974617  1.0
  Ti  Ti1995  1  0.69470716  0.07539702  0.55974617  1.0
  Ti  Ti1996  1  0.69470716  0.21825416  0.55974617  1.0
  Ti  Ti1997  1  0.69470716  0.36111130  0.55974617  1.0
  Ti  Ti1998  1  0.69470716  0.50396845  0.55974617  1.0
  Ti  Ti1999  1  0.69470716  0.64682559  0.55974617  1.0
  Ti  Ti2000  1  0.69470716  0.78968273  0.55974617  1.0
  Ti  Ti2001  1  0.69470716  0.93253988  0.55974617  1.0
  Ti  Ti2002  1  0.80581827  0.07539702  0.55974617  1.0
  Ti  Ti2003  1  0.80581827  0.21825416  0.55974617  1.0
  Ti  Ti2004  1  0.80581827  0.36111130  0.55974617  1.0
  Ti  Ti2005  1  0.80581827  0.50396845  0.55974617  1.0
  Ti  Ti2006  1  0.80581827  0.64682559  0.55974617  1.0
  Ti  Ti2007  1  0.80581827  0.78968273  0.55974617  1.0
  Ti  Ti2008  1  0.80581827  0.93253988  0.55974617  1.0
  Ti  Ti2009  1  0.91692938  0.07539702  0.55974617  1.0
  Ti  Ti2010  1  0.91692938  0.21825416  0.55974617  1.0
  Ti  Ti2011  1  0.91692938  0.36111130  0.55974617  1.0
  Ti  Ti2012  1  0.91692938  0.50396845  0.55974617  1.0
  Ti  Ti2013  1  0.91692938  0.64682559  0.55974617  1.0
  Ti  Ti2014  1  0.91692938  0.78968273  0.55974617  1.0
  Ti  Ti2015  1  0.91692938  0.93253988  0.55974617  1.0
  Ti  Ti2016  1  0.04920452  0.08900246  0.60736522  1.0
  Ti  Ti2017  1  0.04920452  0.23185960  0.60736522  1.0
  Ti  Ti2018  1  0.04920452  0.37471675  0.60736522  1.0
  Ti  Ti2019  1  0.04920452  0.51757389  0.60736522  1.0
  Ti  Ti2020  1  0.04920452  0.66043103  0.60736522  1.0
  Ti  Ti2021  1  0.04920452  0.80328817  0.60736522  1.0
  Ti  Ti2022  1  0.04920452  0.94614532  0.60736522  1.0
  Ti  Ti2023  1  0.16031563  0.08900246  0.60736522  1.0
  Ti  Ti2024  1  0.16031563  0.23185960  0.60736522  1.0
  Ti  Ti2025  1  0.16031563  0.37471675  0.60736522  1.0
  Ti  Ti2026  1  0.16031563  0.51757389  0.60736522  1.0
  Ti  Ti2027  1  0.16031563  0.66043103  0.60736522  1.0
  Ti  Ti2028  1  0.16031563  0.80328817  0.60736522  1.0
  Ti  Ti2029  1  0.16031563  0.94614532  0.60736522  1.0
  Ti  Ti2030  1  0.27142674  0.08900246  0.60736522  1.0
  Ti  Ti2031  1  0.27142674  0.23185960  0.60736522  1.0
  Ti  Ti2032  1  0.27142674  0.37471675  0.60736522  1.0
  Ti  Ti2033  1  0.27142674  0.51757389  0.60736522  1.0
  Ti  Ti2034  1  0.27142674  0.66043103  0.60736522  1.0
  Ti  Ti2035  1  0.27142674  0.80328817  0.60736522  1.0
  Ti  Ti2036  1  0.27142674  0.94614532  0.60736522  1.0
  Ti  Ti2037  1  0.38253785  0.08900246  0.60736522  1.0
  Ti  Ti2038  1  0.38253785  0.23185960  0.60736522  1.0
  Ti  Ti2039  1  0.38253785  0.37471675  0.60736522  1.0
  Ti  Ti2040  1  0.38253785  0.51757389  0.60736522  1.0
  Ti  Ti2041  1  0.38253785  0.66043103  0.60736522  1.0
  Ti  Ti2042  1  0.38253785  0.80328817  0.60736522  1.0
  Ti  Ti2043  1  0.38253785  0.94614532  0.60736522  1.0
  Ti  Ti2044  1  0.49364896  0.08900246  0.60736522  1.0
  Ti  Ti2045  1  0.49364896  0.23185960  0.60736522  1.0
  Ti  Ti2046  1  0.49364896  0.37471675  0.60736522  1.0
  Ti  Ti2047  1  0.49364896  0.51757389  0.60736522  1.0
  Ti  Ti2048  1  0.49364896  0.66043103  0.60736522  1.0
  Ti  Ti2049  1  0.49364896  0.80328817  0.60736522  1.0
  Ti  Ti2050  1  0.49364896  0.94614532  0.60736522  1.0
  Ti  Ti2051  1  0.60476007  0.08900246  0.60736522  1.0
  Ti  Ti2052  1  0.60476007  0.23185960  0.60736522  1.0
  Ti  Ti2053  1  0.60476007  0.37471675  0.60736522  1.0
  Ti  Ti2054  1  0.60476007  0.51757389  0.60736522  1.0
  Ti  Ti2055  1  0.60476007  0.66043103  0.60736522  1.0
  Ti  Ti2056  1  0.60476007  0.80328817  0.60736522  1.0
  Ti  Ti2057  1  0.60476007  0.94614532  0.60736522  1.0
  Ti  Ti2058  1  0.71587118  0.08900246  0.60736522  1.0
  Ti  Ti2059  1  0.71587118  0.23185960  0.60736522  1.0
  Ti  Ti2060  1  0.71587118  0.37471675  0.60736522  1.0
  Ti  Ti2061  1  0.71587118  0.51757389  0.60736522  1.0
  Ti  Ti2062  1  0.71587118  0.66043103  0.60736522  1.0
  Ti  Ti2063  1  0.71587118  0.80328817  0.60736522  1.0
  Ti  Ti2064  1  0.71587118  0.94614532  0.60736522  1.0
  Ti  Ti2065  1  0.82698229  0.08900246  0.60736522  1.0
  Ti  Ti2066  1  0.82698229  0.23185960  0.60736522  1.0
  Ti  Ti2067  1  0.82698229  0.37471675  0.60736522  1.0
  Ti  Ti2068  1  0.82698229  0.51757389  0.60736522  1.0
  Ti  Ti2069  1  0.82698229  0.66043103  0.60736522  1.0
  Ti  Ti2070  1  0.82698229  0.80328817  0.60736522  1.0
  Ti  Ti2071  1  0.82698229  0.94614532  0.60736522  1.0
  Ti  Ti2072  1  0.93809340  0.08900246  0.60736522  1.0
  Ti  Ti2073  1  0.93809340  0.23185960  0.60736522  1.0
  Ti  Ti2074  1  0.93809340  0.37471675  0.60736522  1.0
  Ti  Ti2075  1  0.93809340  0.51757389  0.60736522  1.0
  Ti  Ti2076  1  0.93809340  0.66043103  0.60736522  1.0
  Ti  Ti2077  1  0.93809340  0.80328817  0.60736522  1.0
  Ti  Ti2078  1  0.93809340  0.94614532  0.60736522  1.0
  Ti  Ti2079  1  0.10091249  0.13153217  0.58982657  1.0
  Ti  Ti2080  1  0.10091249  0.27438931  0.58982657  1.0
  Ti  Ti2081  1  0.10091249  0.41724645  0.58982657  1.0
  Ti  Ti2082  1  0.10091249  0.56010360  0.58982657  1.0
  Ti  Ti2083  1  0.10091249  0.70296074  0.58982657  1.0
  Ti  Ti2084  1  0.10091249  0.84581788  0.58982657  1.0
  Ti  Ti2085  1  0.10091249  0.98867502  0.58982657  1.0
  Ti  Ti2086  1  0.21202360  0.13153217  0.58982657  1.0
  Ti  Ti2087  1  0.21202360  0.27438931  0.58982657  1.0
  Ti  Ti2088  1  0.21202360  0.41724645  0.58982657  1.0
  Ti  Ti2089  1  0.21202360  0.56010360  0.58982657  1.0
  Ti  Ti2090  1  0.21202360  0.70296074  0.58982657  1.0
  Ti  Ti2091  1  0.21202360  0.84581788  0.58982657  1.0
  Ti  Ti2092  1  0.21202360  0.98867502  0.58982657  1.0
  Ti  Ti2093  1  0.32313472  0.13153217  0.58982657  1.0
  Ti  Ti2094  1  0.32313472  0.27438931  0.58982657  1.0
  Ti  Ti2095  1  0.32313472  0.41724645  0.58982657  1.0
  Ti  Ti2096  1  0.32313472  0.56010360  0.58982657  1.0
  Ti  Ti2097  1  0.32313472  0.70296074  0.58982657  1.0
  Ti  Ti2098  1  0.32313472  0.84581788  0.58982657  1.0
  Ti  Ti2099  1  0.32313472  0.98867502  0.58982657  1.0
  Ti  Ti2100  1  0.43424583  0.13153217  0.58982657  1.0
  Ti  Ti2101  1  0.43424583  0.27438931  0.58982657  1.0
  Ti  Ti2102  1  0.43424583  0.41724645  0.58982657  1.0
  Ti  Ti2103  1  0.43424583  0.56010360  0.58982657  1.0
  Ti  Ti2104  1  0.43424583  0.70296074  0.58982657  1.0
  Ti  Ti2105  1  0.43424583  0.84581788  0.58982657  1.0
  Ti  Ti2106  1  0.43424583  0.98867502  0.58982657  1.0
  Ti  Ti2107  1  0.54535694  0.13153217  0.58982657  1.0
  Ti  Ti2108  1  0.54535694  0.27438931  0.58982657  1.0
  Ti  Ti2109  1  0.54535694  0.41724645  0.58982657  1.0
  Ti  Ti2110  1  0.54535694  0.56010360  0.58982657  1.0
  Ti  Ti2111  1  0.54535694  0.70296074  0.58982657  1.0
  Ti  Ti2112  1  0.54535694  0.84581788  0.58982657  1.0
  Ti  Ti2113  1  0.54535694  0.98867502  0.58982657  1.0
  Ti  Ti2114  1  0.65646805  0.13153217  0.58982657  1.0
  Ti  Ti2115  1  0.65646805  0.27438931  0.58982657  1.0
  Ti  Ti2116  1  0.65646805  0.41724645  0.58982657  1.0
  Ti  Ti2117  1  0.65646805  0.56010360  0.58982657  1.0
  Ti  Ti2118  1  0.65646805  0.70296074  0.58982657  1.0
  Ti  Ti2119  1  0.65646805  0.84581788  0.58982657  1.0
  Ti  Ti2120  1  0.65646805  0.98867502  0.58982657  1.0
  Ti  Ti2121  1  0.76757916  0.13153217  0.58982657  1.0
  Ti  Ti2122  1  0.76757916  0.27438931  0.58982657  1.0
  Ti  Ti2123  1  0.76757916  0.41724645  0.58982657  1.0
  Ti  Ti2124  1  0.76757916  0.56010360  0.58982657  1.0
  Ti  Ti2125  1  0.76757916  0.70296074  0.58982657  1.0
  Ti  Ti2126  1  0.76757916  0.84581788  0.58982657  1.0
  Ti  Ti2127  1  0.76757916  0.98867502  0.58982657  1.0
  Ti  Ti2128  1  0.87869027  0.13153217  0.58982657  1.0
  Ti  Ti2129  1  0.87869027  0.27438931  0.58982657  1.0
  Ti  Ti2130  1  0.87869027  0.41724645  0.58982657  1.0
  Ti  Ti2131  1  0.87869027  0.56010360  0.58982657  1.0
  Ti  Ti2132  1  0.87869027  0.70296074  0.58982657  1.0
  Ti  Ti2133  1  0.87869027  0.84581788  0.58982657  1.0
  Ti  Ti2134  1  0.87869027  0.98867502  0.58982657  1.0
  Ti  Ti2135  1  0.98980138  0.13153217  0.58982657  1.0
  Ti  Ti2136  1  0.98980138  0.27438931  0.58982657  1.0
  Ti  Ti2137  1  0.98980138  0.41724645  0.58982657  1.0
  Ti  Ti2138  1  0.98980138  0.56010360  0.58982657  1.0
  Ti  Ti2139  1  0.98980138  0.70296074  0.58982657  1.0
  Ti  Ti2140  1  0.98980138  0.84581788  0.58982657  1.0
  Ti  Ti2141  1  0.98980138  0.98867502  0.58982657  1.0
  Ti  Ti2142  1  0.01096540  0.00228047  0.63744562  1.0
  Ti  Ti2143  1  0.01096540  0.14513761  0.63744562  1.0
  Ti  Ti2144  1  0.01096540  0.28799475  0.63744562  1.0
  Ti  Ti2145  1  0.01096540  0.43085189  0.63744562  1.0
  Ti  Ti2146  1  0.01096540  0.57370904  0.63744562  1.0
  Ti  Ti2147  1  0.01096540  0.71656618  0.63744562  1.0
  Ti  Ti2148  1  0.01096540  0.85942332  0.63744562  1.0
  Ti  Ti2149  1  0.12207651  0.00228047  0.63744562  1.0
  Ti  Ti2150  1  0.12207651  0.14513761  0.63744562  1.0
  Ti  Ti2151  1  0.12207651  0.28799475  0.63744562  1.0
  Ti  Ti2152  1  0.12207651  0.43085189  0.63744562  1.0
  Ti  Ti2153  1  0.12207651  0.57370904  0.63744562  1.0
  Ti  Ti2154  1  0.12207651  0.71656618  0.63744562  1.0
  Ti  Ti2155  1  0.12207651  0.85942332  0.63744562  1.0
  Ti  Ti2156  1  0.23318763  0.00228047  0.63744562  1.0
  Ti  Ti2157  1  0.23318763  0.14513761  0.63744562  1.0
  Ti  Ti2158  1  0.23318763  0.28799475  0.63744562  1.0
  Ti  Ti2159  1  0.23318763  0.43085189  0.63744562  1.0
  Ti  Ti2160  1  0.23318763  0.57370904  0.63744562  1.0
  Ti  Ti2161  1  0.23318763  0.71656618  0.63744562  1.0
  Ti  Ti2162  1  0.23318763  0.85942332  0.63744562  1.0
  Ti  Ti2163  1  0.34429874  0.00228047  0.63744562  1.0
  Ti  Ti2164  1  0.34429874  0.14513761  0.63744562  1.0
  Ti  Ti2165  1  0.34429874  0.28799475  0.63744562  1.0
  Ti  Ti2166  1  0.34429874  0.43085189  0.63744562  1.0
  Ti  Ti2167  1  0.34429874  0.57370904  0.63744562  1.0
  Ti  Ti2168  1  0.34429874  0.71656618  0.63744562  1.0
  Ti  Ti2169  1  0.34429874  0.85942332  0.63744562  1.0
  Ti  Ti2170  1  0.45540985  0.00228047  0.63744562  1.0
  Ti  Ti2171  1  0.45540985  0.14513761  0.63744562  1.0
  Ti  Ti2172  1  0.45540985  0.28799475  0.63744562  1.0
  Ti  Ti2173  1  0.45540985  0.43085189  0.63744562  1.0
  Ti  Ti2174  1  0.45540985  0.57370904  0.63744562  1.0
  Ti  Ti2175  1  0.45540985  0.71656618  0.63744562  1.0
  Ti  Ti2176  1  0.45540985  0.85942332  0.63744562  1.0
  Ti  Ti2177  1  0.56652096  0.00228047  0.63744562  1.0
  Ti  Ti2178  1  0.56652096  0.14513761  0.63744562  1.0
  Ti  Ti2179  1  0.56652096  0.28799475  0.63744562  1.0
  Ti  Ti2180  1  0.56652096  0.43085189  0.63744562  1.0
  Ti  Ti2181  1  0.56652096  0.57370904  0.63744562  1.0
  Ti  Ti2182  1  0.56652096  0.71656618  0.63744562  1.0
  Ti  Ti2183  1  0.56652096  0.85942332  0.63744562  1.0
  Ti  Ti2184  1  0.67763207  0.00228047  0.63744562  1.0
  Ti  Ti2185  1  0.67763207  0.14513761  0.63744562  1.0
  Ti  Ti2186  1  0.67763207  0.28799475  0.63744562  1.0
  Ti  Ti2187  1  0.67763207  0.43085189  0.63744562  1.0
  Ti  Ti2188  1  0.67763207  0.57370904  0.63744562  1.0
  Ti  Ti2189  1  0.67763207  0.71656618  0.63744562  1.0
  Ti  Ti2190  1  0.67763207  0.85942332  0.63744562  1.0
  Ti  Ti2191  1  0.78874318  0.00228047  0.63744562  1.0
  Ti  Ti2192  1  0.78874318  0.14513761  0.63744562  1.0
  Ti  Ti2193  1  0.78874318  0.28799475  0.63744562  1.0
  Ti  Ti2194  1  0.78874318  0.43085189  0.63744562  1.0
  Ti  Ti2195  1  0.78874318  0.57370904  0.63744562  1.0
  Ti  Ti2196  1  0.78874318  0.71656618  0.63744562  1.0
  Ti  Ti2197  1  0.78874318  0.85942332  0.63744562  1.0
  Ti  Ti2198  1  0.89985429  0.00228047  0.63744562  1.0
  Ti  Ti2199  1  0.89985429  0.14513761  0.63744562  1.0
  Ti  Ti2200  1  0.89985429  0.28799475  0.63744562  1.0
  Ti  Ti2201  1  0.89985429  0.43085189  0.63744562  1.0
  Ti  Ti2202  1  0.89985429  0.57370904  0.63744562  1.0
  Ti  Ti2203  1  0.89985429  0.71656618  0.63744562  1.0
  Ti  Ti2204  1  0.89985429  0.85942332  0.63744562  1.0
  Ti  Ti2205  1  0.07974847  0.11792672  0.54220752  1.0
  Ti  Ti2206  1  0.07974847  0.26078387  0.54220752  1.0
  Ti  Ti2207  1  0.07974847  0.40364101  0.54220752  1.0
  Ti  Ti2208  1  0.07974847  0.54649815  0.54220752  1.0
  Ti  Ti2209  1  0.07974847  0.68935530  0.54220752  1.0
  Ti  Ti2210  1  0.07974847  0.83221244  0.54220752  1.0
  Ti  Ti2211  1  0.07974847  0.97506958  0.54220752  1.0
  Ti  Ti2212  1  0.19085958  0.11792672  0.54220752  1.0
  Ti  Ti2213  1  0.19085958  0.26078387  0.54220752  1.0
  Ti  Ti2214  1  0.19085958  0.40364101  0.54220752  1.0
  Ti  Ti2215  1  0.19085958  0.54649815  0.54220752  1.0
  Ti  Ti2216  1  0.19085958  0.68935530  0.54220752  1.0
  Ti  Ti2217  1  0.19085958  0.83221244  0.54220752  1.0
  Ti  Ti2218  1  0.19085958  0.97506958  0.54220752  1.0
  Ti  Ti2219  1  0.30197069  0.11792672  0.54220752  1.0
  Ti  Ti2220  1  0.30197069  0.26078387  0.54220752  1.0
  Ti  Ti2221  1  0.30197069  0.40364101  0.54220752  1.0
  Ti  Ti2222  1  0.30197069  0.54649815  0.54220752  1.0
  Ti  Ti2223  1  0.30197069  0.68935530  0.54220752  1.0
  Ti  Ti2224  1  0.30197069  0.83221244  0.54220752  1.0
  Ti  Ti2225  1  0.30197069  0.97506958  0.54220752  1.0
  Ti  Ti2226  1  0.41308181  0.11792672  0.54220752  1.0
  Ti  Ti2227  1  0.41308181  0.26078387  0.54220752  1.0
  Ti  Ti2228  1  0.41308181  0.40364101  0.54220752  1.0
  Ti  Ti2229  1  0.41308181  0.54649815  0.54220752  1.0
  Ti  Ti2230  1  0.41308181  0.68935530  0.54220752  1.0
  Ti  Ti2231  1  0.41308181  0.83221244  0.54220752  1.0
  Ti  Ti2232  1  0.41308181  0.97506958  0.54220752  1.0
  Ti  Ti2233  1  0.52419292  0.11792672  0.54220752  1.0
  Ti  Ti2234  1  0.52419292  0.26078387  0.54220752  1.0
  Ti  Ti2235  1  0.52419292  0.40364101  0.54220752  1.0
  Ti  Ti2236  1  0.52419292  0.54649815  0.54220752  1.0
  Ti  Ti2237  1  0.52419292  0.68935530  0.54220752  1.0
  Ti  Ti2238  1  0.52419292  0.83221244  0.54220752  1.0
  Ti  Ti2239  1  0.52419292  0.97506958  0.54220752  1.0
  Ti  Ti2240  1  0.63530403  0.11792672  0.54220752  1.0
  Ti  Ti2241  1  0.63530403  0.26078387  0.54220752  1.0
  Ti  Ti2242  1  0.63530403  0.40364101  0.54220752  1.0
  Ti  Ti2243  1  0.63530403  0.54649815  0.54220752  1.0
  Ti  Ti2244  1  0.63530403  0.68935530  0.54220752  1.0
  Ti  Ti2245  1  0.63530403  0.83221244  0.54220752  1.0
  Ti  Ti2246  1  0.63530403  0.97506958  0.54220752  1.0
  Ti  Ti2247  1  0.74641514  0.11792672  0.54220752  1.0
  Ti  Ti2248  1  0.74641514  0.26078387  0.54220752  1.0
  Ti  Ti2249  1  0.74641514  0.40364101  0.54220752  1.0
  Ti  Ti2250  1  0.74641514  0.54649815  0.54220752  1.0
  Ti  Ti2251  1  0.74641514  0.68935530  0.54220752  1.0
  Ti  Ti2252  1  0.74641514  0.83221244  0.54220752  1.0
  Ti  Ti2253  1  0.74641514  0.97506958  0.54220752  1.0
  Ti  Ti2254  1  0.85752625  0.11792672  0.54220752  1.0
  Ti  Ti2255  1  0.85752625  0.26078387  0.54220752  1.0
  Ti  Ti2256  1  0.85752625  0.40364101  0.54220752  1.0
  Ti  Ti2257  1  0.85752625  0.54649815  0.54220752  1.0
  Ti  Ti2258  1  0.85752625  0.68935530  0.54220752  1.0
  Ti  Ti2259  1  0.85752625  0.83221244  0.54220752  1.0
  Ti  Ti2260  1  0.85752625  0.97506958  0.54220752  1.0
  Ti  Ti2261  1  0.96863736  0.11792672  0.54220752  1.0
  Ti  Ti2262  1  0.96863736  0.26078387  0.54220752  1.0
  Ti  Ti2263  1  0.96863736  0.40364101  0.54220752  1.0
  Ti  Ti2264  1  0.96863736  0.54649815  0.54220752  1.0
  Ti  Ti2265  1  0.96863736  0.68935530  0.54220752  1.0
  Ti  Ti2266  1  0.96863736  0.83221244  0.54220752  1.0
  Ti  Ti2267  1  0.96863736  0.97506958  0.54220752  1.0
  Ti  Ti2268  1  0.02893393  0.08779783  0.68675640  1.0
  Ti  Ti2269  1  0.02893393  0.23065497  0.68675640  1.0
  Ti  Ti2270  1  0.02893393  0.37351212  0.68675640  1.0
  Ti  Ti2271  1  0.02893393  0.51636926  0.68675640  1.0
  Ti  Ti2272  1  0.02893393  0.65922640  0.68675640  1.0
  Ti  Ti2273  1  0.02893393  0.80208355  0.68675640  1.0
  Ti  Ti2274  1  0.02893393  0.94494069  0.68675640  1.0
  Ti  Ti2275  1  0.14004504  0.08779783  0.68675640  1.0
  Ti  Ti2276  1  0.14004504  0.23065497  0.68675640  1.0
  Ti  Ti2277  1  0.14004504  0.37351212  0.68675640  1.0
  Ti  Ti2278  1  0.14004504  0.51636926  0.68675640  1.0
  Ti  Ti2279  1  0.14004504  0.65922640  0.68675640  1.0
  Ti  Ti2280  1  0.14004504  0.80208355  0.68675640  1.0
  Ti  Ti2281  1  0.14004504  0.94494069  0.68675640  1.0
  Ti  Ti2282  1  0.25115615  0.08779783  0.68675640  1.0
  Ti  Ti2283  1  0.25115615  0.23065497  0.68675640  1.0
  Ti  Ti2284  1  0.25115615  0.37351212  0.68675640  1.0
  Ti  Ti2285  1  0.25115615  0.51636926  0.68675640  1.0
  Ti  Ti2286  1  0.25115615  0.65922640  0.68675640  1.0
  Ti  Ti2287  1  0.25115615  0.80208355  0.68675640  1.0
  Ti  Ti2288  1  0.25115615  0.94494069  0.68675640  1.0
  Ti  Ti2289  1  0.36226726  0.08779783  0.68675640  1.0
  Ti  Ti2290  1  0.36226726  0.23065497  0.68675640  1.0
  Ti  Ti2291  1  0.36226726  0.37351212  0.68675640  1.0
  Ti  Ti2292  1  0.36226726  0.51636926  0.68675640  1.0
  Ti  Ti2293  1  0.36226726  0.65922640  0.68675640  1.0
  Ti  Ti2294  1  0.36226726  0.80208355  0.68675640  1.0
  Ti  Ti2295  1  0.36226726  0.94494069  0.68675640  1.0
  Ti  Ti2296  1  0.47337837  0.08779783  0.68675640  1.0
  Ti  Ti2297  1  0.47337837  0.23065497  0.68675640  1.0
  Ti  Ti2298  1  0.47337837  0.37351212  0.68675640  1.0
  Ti  Ti2299  1  0.47337837  0.51636926  0.68675640  1.0
  Ti  Ti2300  1  0.47337837  0.65922640  0.68675640  1.0
  Ti  Ti2301  1  0.47337837  0.80208355  0.68675640  1.0
  Ti  Ti2302  1  0.47337837  0.94494069  0.68675640  1.0
  Ti  Ti2303  1  0.58448948  0.08779783  0.68675640  1.0
  Ti  Ti2304  1  0.58448948  0.23065497  0.68675640  1.0
  Ti  Ti2305  1  0.58448948  0.37351212  0.68675640  1.0
  Ti  Ti2306  1  0.58448948  0.51636926  0.68675640  1.0
  Ti  Ti2307  1  0.58448948  0.65922640  0.68675640  1.0
  Ti  Ti2308  1  0.58448948  0.80208355  0.68675640  1.0
  Ti  Ti2309  1  0.58448948  0.94494069  0.68675640  1.0
  Ti  Ti2310  1  0.69560060  0.08779783  0.68675640  1.0
  Ti  Ti2311  1  0.69560060  0.23065497  0.68675640  1.0
  Ti  Ti2312  1  0.69560060  0.37351212  0.68675640  1.0
  Ti  Ti2313  1  0.69560060  0.51636926  0.68675640  1.0
  Ti  Ti2314  1  0.69560060  0.65922640  0.68675640  1.0
  Ti  Ti2315  1  0.69560060  0.80208355  0.68675640  1.0
  Ti  Ti2316  1  0.69560060  0.94494069  0.68675640  1.0
  Ti  Ti2317  1  0.80671171  0.08779783  0.68675640  1.0
  Ti  Ti2318  1  0.80671171  0.23065497  0.68675640  1.0
  Ti  Ti2319  1  0.80671171  0.37351212  0.68675640  1.0
  Ti  Ti2320  1  0.80671171  0.51636926  0.68675640  1.0
  Ti  Ti2321  1  0.80671171  0.65922640  0.68675640  1.0
  Ti  Ti2322  1  0.80671171  0.80208355  0.68675640  1.0
  Ti  Ti2323  1  0.80671171  0.94494069  0.68675640  1.0
  Ti  Ti2324  1  0.91782282  0.08779783  0.68675640  1.0
  Ti  Ti2325  1  0.91782282  0.23065497  0.68675640  1.0
  Ti  Ti2326  1  0.91782282  0.37351212  0.68675640  1.0
  Ti  Ti2327  1  0.91782282  0.51636926  0.68675640  1.0
  Ti  Ti2328  1  0.91782282  0.65922640  0.68675640  1.0
  Ti  Ti2329  1  0.91782282  0.80208355  0.68675640  1.0
  Ti  Ti2330  1  0.91782282  0.94494069  0.68675640  1.0
  Ti  Ti2331  1  0.05009795  0.10140327  0.73437545  1.0
  Ti  Ti2332  1  0.05009795  0.24426042  0.73437545  1.0
  Ti  Ti2333  1  0.05009795  0.38711756  0.73437545  1.0
  Ti  Ti2334  1  0.05009795  0.52997470  0.73437545  1.0
  Ti  Ti2335  1  0.05009795  0.67283185  0.73437545  1.0
  Ti  Ti2336  1  0.05009795  0.81568899  0.73437545  1.0
  Ti  Ti2337  1  0.05009795  0.95854613  0.73437545  1.0
  Ti  Ti2338  1  0.16120906  0.10140327  0.73437545  1.0
  Ti  Ti2339  1  0.16120906  0.24426042  0.73437545  1.0
  Ti  Ti2340  1  0.16120906  0.38711756  0.73437545  1.0
  Ti  Ti2341  1  0.16120906  0.52997470  0.73437545  1.0
  Ti  Ti2342  1  0.16120906  0.67283185  0.73437545  1.0
  Ti  Ti2343  1  0.16120906  0.81568899  0.73437545  1.0
  Ti  Ti2344  1  0.16120906  0.95854613  0.73437545  1.0
  Ti  Ti2345  1  0.27232017  0.10140327  0.73437545  1.0
  Ti  Ti2346  1  0.27232017  0.24426042  0.73437545  1.0
  Ti  Ti2347  1  0.27232017  0.38711756  0.73437545  1.0
  Ti  Ti2348  1  0.27232017  0.52997470  0.73437545  1.0
  Ti  Ti2349  1  0.27232017  0.67283185  0.73437545  1.0
  Ti  Ti2350  1  0.27232017  0.81568899  0.73437545  1.0
  Ti  Ti2351  1  0.27232017  0.95854613  0.73437545  1.0
  Ti  Ti2352  1  0.38343128  0.10140327  0.73437545  1.0
  Ti  Ti2353  1  0.38343128  0.24426042  0.73437545  1.0
  Ti  Ti2354  1  0.38343128  0.38711756  0.73437545  1.0
  Ti  Ti2355  1  0.38343128  0.52997470  0.73437545  1.0
  Ti  Ti2356  1  0.38343128  0.67283185  0.73437545  1.0
  Ti  Ti2357  1  0.38343128  0.81568899  0.73437545  1.0
  Ti  Ti2358  1  0.38343128  0.95854613  0.73437545  1.0
  Ti  Ti2359  1  0.49454239  0.10140327  0.73437545  1.0
  Ti  Ti2360  1  0.49454239  0.24426042  0.73437545  1.0
  Ti  Ti2361  1  0.49454239  0.38711756  0.73437545  1.0
  Ti  Ti2362  1  0.49454239  0.52997470  0.73437545  1.0
  Ti  Ti2363  1  0.49454239  0.67283185  0.73437545  1.0
  Ti  Ti2364  1  0.49454239  0.81568899  0.73437545  1.0
  Ti  Ti2365  1  0.49454239  0.95854613  0.73437545  1.0
  Ti  Ti2366  1  0.60565351  0.10140327  0.73437545  1.0
  Ti  Ti2367  1  0.60565351  0.24426042  0.73437545  1.0
  Ti  Ti2368  1  0.60565351  0.38711756  0.73437545  1.0
  Ti  Ti2369  1  0.60565351  0.52997470  0.73437545  1.0
  Ti  Ti2370  1  0.60565351  0.67283185  0.73437545  1.0
  Ti  Ti2371  1  0.60565351  0.81568899  0.73437545  1.0
  Ti  Ti2372  1  0.60565351  0.95854613  0.73437545  1.0
  Ti  Ti2373  1  0.71676462  0.10140327  0.73437545  1.0
  Ti  Ti2374  1  0.71676462  0.24426042  0.73437545  1.0
  Ti  Ti2375  1  0.71676462  0.38711756  0.73437545  1.0
  Ti  Ti2376  1  0.71676462  0.52997470  0.73437545  1.0
  Ti  Ti2377  1  0.71676462  0.67283185  0.73437545  1.0
  Ti  Ti2378  1  0.71676462  0.81568899  0.73437545  1.0
  Ti  Ti2379  1  0.71676462  0.95854613  0.73437545  1.0
  Ti  Ti2380  1  0.82787573  0.10140327  0.73437545  1.0
  Ti  Ti2381  1  0.82787573  0.24426042  0.73437545  1.0
  Ti  Ti2382  1  0.82787573  0.38711756  0.73437545  1.0
  Ti  Ti2383  1  0.82787573  0.52997470  0.73437545  1.0
  Ti  Ti2384  1  0.82787573  0.67283185  0.73437545  1.0
  Ti  Ti2385  1  0.82787573  0.81568899  0.73437545  1.0
  Ti  Ti2386  1  0.82787573  0.95854613  0.73437545  1.0
  Ti  Ti2387  1  0.93898684  0.10140327  0.73437545  1.0
  Ti  Ti2388  1  0.93898684  0.24426042  0.73437545  1.0
  Ti  Ti2389  1  0.93898684  0.38711756  0.73437545  1.0
  Ti  Ti2390  1  0.93898684  0.52997470  0.73437545  1.0
  Ti  Ti2391  1  0.93898684  0.67283185  0.73437545  1.0
  Ti  Ti2392  1  0.93898684  0.81568899  0.73437545  1.0
  Ti  Ti2393  1  0.93898684  0.95854613  0.73437545  1.0
  Ti  Ti2394  1  0.09472805  0.04430142  0.70091158  1.0
  Ti  Ti2395  1  0.09472805  0.18715856  0.70091158  1.0
  Ti  Ti2396  1  0.09472805  0.33001571  0.70091158  1.0
  Ti  Ti2397  1  0.09472805  0.47287285  0.70091158  1.0
  Ti  Ti2398  1  0.09472805  0.61572999  0.70091158  1.0
  Ti  Ti2399  1  0.09472805  0.75858714  0.70091158  1.0
  Ti  Ti2400  1  0.09472805  0.90144428  0.70091158  1.0
  Ti  Ti2401  1  0.20583917  0.04430142  0.70091158  1.0
  Ti  Ti2402  1  0.20583917  0.18715856  0.70091158  1.0
  Ti  Ti2403  1  0.20583917  0.33001571  0.70091158  1.0
  Ti  Ti2404  1  0.20583917  0.47287285  0.70091158  1.0
  Ti  Ti2405  1  0.20583917  0.61572999  0.70091158  1.0
  Ti  Ti2406  1  0.20583917  0.75858714  0.70091158  1.0
  Ti  Ti2407  1  0.20583917  0.90144428  0.70091158  1.0
  Ti  Ti2408  1  0.31695028  0.04430142  0.70091158  1.0
  Ti  Ti2409  1  0.31695028  0.18715856  0.70091158  1.0
  Ti  Ti2410  1  0.31695028  0.33001571  0.70091158  1.0
  Ti  Ti2411  1  0.31695028  0.47287285  0.70091158  1.0
  Ti  Ti2412  1  0.31695028  0.61572999  0.70091158  1.0
  Ti  Ti2413  1  0.31695028  0.75858714  0.70091158  1.0
  Ti  Ti2414  1  0.31695028  0.90144428  0.70091158  1.0
  Ti  Ti2415  1  0.42806139  0.04430142  0.70091158  1.0
  Ti  Ti2416  1  0.42806139  0.18715856  0.70091158  1.0
  Ti  Ti2417  1  0.42806139  0.33001571  0.70091158  1.0
  Ti  Ti2418  1  0.42806139  0.47287285  0.70091158  1.0
  Ti  Ti2419  1  0.42806139  0.61572999  0.70091158  1.0
  Ti  Ti2420  1  0.42806139  0.75858714  0.70091158  1.0
  Ti  Ti2421  1  0.42806139  0.90144428  0.70091158  1.0
  Ti  Ti2422  1  0.53917250  0.04430142  0.70091158  1.0
  Ti  Ti2423  1  0.53917250  0.18715856  0.70091158  1.0
  Ti  Ti2424  1  0.53917250  0.33001571  0.70091158  1.0
  Ti  Ti2425  1  0.53917250  0.47287285  0.70091158  1.0
  Ti  Ti2426  1  0.53917250  0.61572999  0.70091158  1.0
  Ti  Ti2427  1  0.53917250  0.75858714  0.70091158  1.0
  Ti  Ti2428  1  0.53917250  0.90144428  0.70091158  1.0
  Ti  Ti2429  1  0.65028361  0.04430142  0.70091158  1.0
  Ti  Ti2430  1  0.65028361  0.18715856  0.70091158  1.0
  Ti  Ti2431  1  0.65028361  0.33001571  0.70091158  1.0
  Ti  Ti2432  1  0.65028361  0.47287285  0.70091158  1.0
  Ti  Ti2433  1  0.65028361  0.61572999  0.70091158  1.0
  Ti  Ti2434  1  0.65028361  0.75858714  0.70091158  1.0
  Ti  Ti2435  1  0.65028361  0.90144428  0.70091158  1.0
  Ti  Ti2436  1  0.76139472  0.04430142  0.70091158  1.0
  Ti  Ti2437  1  0.76139472  0.18715856  0.70091158  1.0
  Ti  Ti2438  1  0.76139472  0.33001571  0.70091158  1.0
  Ti  Ti2439  1  0.76139472  0.47287285  0.70091158  1.0
  Ti  Ti2440  1  0.76139472  0.61572999  0.70091158  1.0
  Ti  Ti2441  1  0.76139472  0.75858714  0.70091158  1.0
  Ti  Ti2442  1  0.76139472  0.90144428  0.70091158  1.0
  Ti  Ti2443  1  0.87250583  0.04430142  0.70091158  1.0
  Ti  Ti2444  1  0.87250583  0.18715856  0.70091158  1.0
  Ti  Ti2445  1  0.87250583  0.33001571  0.70091158  1.0
  Ti  Ti2446  1  0.87250583  0.47287285  0.70091158  1.0
  Ti  Ti2447  1  0.87250583  0.61572999  0.70091158  1.0
  Ti  Ti2448  1  0.87250583  0.75858714  0.70091158  1.0
  Ti  Ti2449  1  0.87250583  0.90144428  0.70091158  1.0
  Ti  Ti2450  1  0.98361694  0.04430142  0.70091158  1.0
  Ti  Ti2451  1  0.98361694  0.18715856  0.70091158  1.0
  Ti  Ti2452  1  0.98361694  0.33001571  0.70091158  1.0
  Ti  Ti2453  1  0.98361694  0.47287285  0.70091158  1.0
  Ti  Ti2454  1  0.98361694  0.61572999  0.70091158  1.0
  Ti  Ti2455  1  0.98361694  0.75858714  0.70091158  1.0
  Ti  Ti2456  1  0.98361694  0.90144428  0.70091158  1.0
  Ti  Ti2457  1  0.07356403  0.03069598  0.65329253  1.0
  Ti  Ti2458  1  0.07356403  0.17355312  0.65329253  1.0
  Ti  Ti2459  1  0.07356403  0.31641026  0.65329253  1.0
  Ti  Ti2460  1  0.07356403  0.45926741  0.65329253  1.0
  Ti  Ti2461  1  0.07356403  0.60212455  0.65329253  1.0
  Ti  Ti2462  1  0.07356403  0.74498169  0.65329253  1.0
  Ti  Ti2463  1  0.07356403  0.88783884  0.65329253  1.0
  Ti  Ti2464  1  0.18467514  0.03069598  0.65329253  1.0
  Ti  Ti2465  1  0.18467514  0.17355312  0.65329253  1.0
  Ti  Ti2466  1  0.18467514  0.31641026  0.65329253  1.0
  Ti  Ti2467  1  0.18467514  0.45926741  0.65329253  1.0
  Ti  Ti2468  1  0.18467514  0.60212455  0.65329253  1.0
  Ti  Ti2469  1  0.18467514  0.74498169  0.65329253  1.0
  Ti  Ti2470  1  0.18467514  0.88783884  0.65329253  1.0
  Ti  Ti2471  1  0.29578626  0.03069598  0.65329253  1.0
  Ti  Ti2472  1  0.29578626  0.17355312  0.65329253  1.0
  Ti  Ti2473  1  0.29578626  0.31641026  0.65329253  1.0
  Ti  Ti2474  1  0.29578626  0.45926741  0.65329253  1.0
  Ti  Ti2475  1  0.29578626  0.60212455  0.65329253  1.0
  Ti  Ti2476  1  0.29578626  0.74498169  0.65329253  1.0
  Ti  Ti2477  1  0.29578626  0.88783884  0.65329253  1.0
  Ti  Ti2478  1  0.40689737  0.03069598  0.65329253  1.0
  Ti  Ti2479  1  0.40689737  0.17355312  0.65329253  1.0
  Ti  Ti2480  1  0.40689737  0.31641026  0.65329253  1.0
  Ti  Ti2481  1  0.40689737  0.45926741  0.65329253  1.0
  Ti  Ti2482  1  0.40689737  0.60212455  0.65329253  1.0
  Ti  Ti2483  1  0.40689737  0.74498169  0.65329253  1.0
  Ti  Ti2484  1  0.40689737  0.88783884  0.65329253  1.0
  Ti  Ti2485  1  0.51800848  0.03069598  0.65329253  1.0
  Ti  Ti2486  1  0.51800848  0.17355312  0.65329253  1.0
  Ti  Ti2487  1  0.51800848  0.31641026  0.65329253  1.0
  Ti  Ti2488  1  0.51800848  0.45926741  0.65329253  1.0
  Ti  Ti2489  1  0.51800848  0.60212455  0.65329253  1.0
  Ti  Ti2490  1  0.51800848  0.74498169  0.65329253  1.0
  Ti  Ti2491  1  0.51800848  0.88783884  0.65329253  1.0
  Ti  Ti2492  1  0.62911959  0.03069598  0.65329253  1.0
  Ti  Ti2493  1  0.62911959  0.17355312  0.65329253  1.0
  Ti  Ti2494  1  0.62911959  0.31641026  0.65329253  1.0
  Ti  Ti2495  1  0.62911959  0.45926741  0.65329253  1.0
  Ti  Ti2496  1  0.62911959  0.60212455  0.65329253  1.0
  Ti  Ti2497  1  0.62911959  0.74498169  0.65329253  1.0
  Ti  Ti2498  1  0.62911959  0.88783884  0.65329253  1.0
  Ti  Ti2499  1  0.74023070  0.03069598  0.65329253  1.0
  Ti  Ti2500  1  0.74023070  0.17355312  0.65329253  1.0
  Ti  Ti2501  1  0.74023070  0.31641026  0.65329253  1.0
  Ti  Ti2502  1  0.74023070  0.45926741  0.65329253  1.0
  Ti  Ti2503  1  0.74023070  0.60212455  0.65329253  1.0
  Ti  Ti2504  1  0.74023070  0.74498169  0.65329253  1.0
  Ti  Ti2505  1  0.74023070  0.88783884  0.65329253  1.0
  Ti  Ti2506  1  0.85134181  0.03069598  0.65329253  1.0
  Ti  Ti2507  1  0.85134181  0.17355312  0.65329253  1.0
  Ti  Ti2508  1  0.85134181  0.31641026  0.65329253  1.0
  Ti  Ti2509  1  0.85134181  0.45926741  0.65329253  1.0
  Ti  Ti2510  1  0.85134181  0.60212455  0.65329253  1.0
  Ti  Ti2511  1  0.85134181  0.74498169  0.65329253  1.0
  Ti  Ti2512  1  0.85134181  0.88783884  0.65329253  1.0
  Ti  Ti2513  1  0.96245292  0.03069598  0.65329253  1.0
  Ti  Ti2514  1  0.96245292  0.17355312  0.65329253  1.0
  Ti  Ti2515  1  0.96245292  0.31641026  0.65329253  1.0
  Ti  Ti2516  1  0.96245292  0.45926741  0.65329253  1.0
  Ti  Ti2517  1  0.96245292  0.60212455  0.65329253  1.0
  Ti  Ti2518  1  0.96245292  0.74498169  0.65329253  1.0
  Ti  Ti2519  1  0.96245292  0.88783884  0.65329253  1.0
  Ti  Ti2520  1  0.07036854  0.10260790  0.65498427  1.0
  Ti  Ti2521  1  0.07036854  0.24546505  0.65498427  1.0
  Ti  Ti2522  1  0.07036854  0.38832219  0.65498427  1.0
  Ti  Ti2523  1  0.07036854  0.53117933  0.65498427  1.0
  Ti  Ti2524  1  0.07036854  0.67403647  0.65498427  1.0
  Ti  Ti2525  1  0.07036854  0.81689362  0.65498427  1.0
  Ti  Ti2526  1  0.07036854  0.95975076  0.65498427  1.0
  Ti  Ti2527  1  0.18147965  0.10260790  0.65498427  1.0
  Ti  Ti2528  1  0.18147965  0.24546505  0.65498427  1.0
  Ti  Ti2529  1  0.18147965  0.38832219  0.65498427  1.0
  Ti  Ti2530  1  0.18147965  0.53117933  0.65498427  1.0
  Ti  Ti2531  1  0.18147965  0.67403647  0.65498427  1.0
  Ti  Ti2532  1  0.18147965  0.81689362  0.65498427  1.0
  Ti  Ti2533  1  0.18147965  0.95975076  0.65498427  1.0
  Ti  Ti2534  1  0.29259076  0.10260790  0.65498427  1.0
  Ti  Ti2535  1  0.29259076  0.24546505  0.65498427  1.0
  Ti  Ti2536  1  0.29259076  0.38832219  0.65498427  1.0
  Ti  Ti2537  1  0.29259076  0.53117933  0.65498427  1.0
  Ti  Ti2538  1  0.29259076  0.67403647  0.65498427  1.0
  Ti  Ti2539  1  0.29259076  0.81689362  0.65498427  1.0
  Ti  Ti2540  1  0.29259076  0.95975076  0.65498427  1.0
  Ti  Ti2541  1  0.40370187  0.10260790  0.65498427  1.0
  Ti  Ti2542  1  0.40370187  0.24546505  0.65498427  1.0
  Ti  Ti2543  1  0.40370187  0.38832219  0.65498427  1.0
  Ti  Ti2544  1  0.40370187  0.53117933  0.65498427  1.0
  Ti  Ti2545  1  0.40370187  0.67403647  0.65498427  1.0
  Ti  Ti2546  1  0.40370187  0.81689362  0.65498427  1.0
  Ti  Ti2547  1  0.40370187  0.95975076  0.65498427  1.0
  Ti  Ti2548  1  0.51481298  0.10260790  0.65498427  1.0
  Ti  Ti2549  1  0.51481298  0.24546505  0.65498427  1.0
  Ti  Ti2550  1  0.51481298  0.38832219  0.65498427  1.0
  Ti  Ti2551  1  0.51481298  0.53117933  0.65498427  1.0
  Ti  Ti2552  1  0.51481298  0.67403647  0.65498427  1.0
  Ti  Ti2553  1  0.51481298  0.81689362  0.65498427  1.0
  Ti  Ti2554  1  0.51481298  0.95975076  0.65498427  1.0
  Ti  Ti2555  1  0.62592409  0.10260790  0.65498427  1.0
  Ti  Ti2556  1  0.62592409  0.24546505  0.65498427  1.0
  Ti  Ti2557  1  0.62592409  0.38832219  0.65498427  1.0
  Ti  Ti2558  1  0.62592409  0.53117933  0.65498427  1.0
  Ti  Ti2559  1  0.62592409  0.67403647  0.65498427  1.0
  Ti  Ti2560  1  0.62592409  0.81689362  0.65498427  1.0
  Ti  Ti2561  1  0.62592409  0.95975076  0.65498427  1.0
  Ti  Ti2562  1  0.73703520  0.10260790  0.65498427  1.0
  Ti  Ti2563  1  0.73703520  0.24546505  0.65498427  1.0
  Ti  Ti2564  1  0.73703520  0.38832219  0.65498427  1.0
  Ti  Ti2565  1  0.73703520  0.53117933  0.65498427  1.0
  Ti  Ti2566  1  0.73703520  0.67403647  0.65498427  1.0
  Ti  Ti2567  1  0.73703520  0.81689362  0.65498427  1.0
  Ti  Ti2568  1  0.73703520  0.95975076  0.65498427  1.0
  Ti  Ti2569  1  0.84814631  0.10260790  0.65498427  1.0
  Ti  Ti2570  1  0.84814631  0.24546505  0.65498427  1.0
  Ti  Ti2571  1  0.84814631  0.38832219  0.65498427  1.0
  Ti  Ti2572  1  0.84814631  0.53117933  0.65498427  1.0
  Ti  Ti2573  1  0.84814631  0.67403647  0.65498427  1.0
  Ti  Ti2574  1  0.84814631  0.81689362  0.65498427  1.0
  Ti  Ti2575  1  0.84814631  0.95975076  0.65498427  1.0
  Ti  Ti2576  1  0.95925743  0.10260790  0.65498427  1.0
  Ti  Ti2577  1  0.95925743  0.24546505  0.65498427  1.0
  Ti  Ti2578  1  0.95925743  0.38832219  0.65498427  1.0
  Ti  Ti2579  1  0.95925743  0.53117933  0.65498427  1.0
  Ti  Ti2580  1  0.95925743  0.67403647  0.65498427  1.0
  Ti  Ti2581  1  0.95925743  0.81689362  0.65498427  1.0
  Ti  Ti2582  1  0.95925743  0.95975076  0.65498427  1.0
  Ti  Ti2583  1  0.09153256  0.11621334  0.70260332  1.0
  Ti  Ti2584  1  0.09153256  0.25907049  0.70260332  1.0
  Ti  Ti2585  1  0.09153256  0.40192763  0.70260332  1.0
  Ti  Ti2586  1  0.09153256  0.54478477  0.70260332  1.0
  Ti  Ti2587  1  0.09153256  0.68764192  0.70260332  1.0
  Ti  Ti2588  1  0.09153256  0.83049906  0.70260332  1.0
  Ti  Ti2589  1  0.09153256  0.97335620  0.70260332  1.0
  Ti  Ti2590  1  0.20264367  0.11621334  0.70260332  1.0
  Ti  Ti2591  1  0.20264367  0.25907049  0.70260332  1.0
  Ti  Ti2592  1  0.20264367  0.40192763  0.70260332  1.0
  Ti  Ti2593  1  0.20264367  0.54478477  0.70260332  1.0
  Ti  Ti2594  1  0.20264367  0.68764192  0.70260332  1.0
  Ti  Ti2595  1  0.20264367  0.83049906  0.70260332  1.0
  Ti  Ti2596  1  0.20264367  0.97335620  0.70260332  1.0
  Ti  Ti2597  1  0.31375478  0.11621334  0.70260332  1.0
  Ti  Ti2598  1  0.31375478  0.25907049  0.70260332  1.0
  Ti  Ti2599  1  0.31375478  0.40192763  0.70260332  1.0
  Ti  Ti2600  1  0.31375478  0.54478477  0.70260332  1.0
  Ti  Ti2601  1  0.31375478  0.68764192  0.70260332  1.0
  Ti  Ti2602  1  0.31375478  0.83049906  0.70260332  1.0
  Ti  Ti2603  1  0.31375478  0.97335620  0.70260332  1.0
  Ti  Ti2604  1  0.42486589  0.11621334  0.70260332  1.0
  Ti  Ti2605  1  0.42486589  0.25907049  0.70260332  1.0
  Ti  Ti2606  1  0.42486589  0.40192763  0.70260332  1.0
  Ti  Ti2607  1  0.42486589  0.54478477  0.70260332  1.0
  Ti  Ti2608  1  0.42486589  0.68764192  0.70260332  1.0
  Ti  Ti2609  1  0.42486589  0.83049906  0.70260332  1.0
  Ti  Ti2610  1  0.42486589  0.97335620  0.70260332  1.0
  Ti  Ti2611  1  0.53597700  0.11621334  0.70260332  1.0
  Ti  Ti2612  1  0.53597700  0.25907049  0.70260332  1.0
  Ti  Ti2613  1  0.53597700  0.40192763  0.70260332  1.0
  Ti  Ti2614  1  0.53597700  0.54478477  0.70260332  1.0
  Ti  Ti2615  1  0.53597700  0.68764192  0.70260332  1.0
  Ti  Ti2616  1  0.53597700  0.83049906  0.70260332  1.0
  Ti  Ti2617  1  0.53597700  0.97335620  0.70260332  1.0
  Ti  Ti2618  1  0.64708811  0.11621334  0.70260332  1.0
  Ti  Ti2619  1  0.64708811  0.25907049  0.70260332  1.0
  Ti  Ti2620  1  0.64708811  0.40192763  0.70260332  1.0
  Ti  Ti2621  1  0.64708811  0.54478477  0.70260332  1.0
  Ti  Ti2622  1  0.64708811  0.68764192  0.70260332  1.0
  Ti  Ti2623  1  0.64708811  0.83049906  0.70260332  1.0
  Ti  Ti2624  1  0.64708811  0.97335620  0.70260332  1.0
  Ti  Ti2625  1  0.75819922  0.11621334  0.70260332  1.0
  Ti  Ti2626  1  0.75819922  0.25907049  0.70260332  1.0
  Ti  Ti2627  1  0.75819922  0.40192763  0.70260332  1.0
  Ti  Ti2628  1  0.75819922  0.54478477  0.70260332  1.0
  Ti  Ti2629  1  0.75819922  0.68764192  0.70260332  1.0
  Ti  Ti2630  1  0.75819922  0.83049906  0.70260332  1.0
  Ti  Ti2631  1  0.75819922  0.97335620  0.70260332  1.0
  Ti  Ti2632  1  0.86931034  0.11621334  0.70260332  1.0
  Ti  Ti2633  1  0.86931034  0.25907049  0.70260332  1.0
  Ti  Ti2634  1  0.86931034  0.40192763  0.70260332  1.0
  Ti  Ti2635  1  0.86931034  0.54478477  0.70260332  1.0
  Ti  Ti2636  1  0.86931034  0.68764192  0.70260332  1.0
  Ti  Ti2637  1  0.86931034  0.83049906  0.70260332  1.0
  Ti  Ti2638  1  0.86931034  0.97335620  0.70260332  1.0
  Ti  Ti2639  1  0.98042145  0.11621334  0.70260332  1.0
  Ti  Ti2640  1  0.98042145  0.25907049  0.70260332  1.0
  Ti  Ti2641  1  0.98042145  0.40192763  0.70260332  1.0
  Ti  Ti2642  1  0.98042145  0.54478477  0.70260332  1.0
  Ti  Ti2643  1  0.98042145  0.68764192  0.70260332  1.0
  Ti  Ti2644  1  0.98042145  0.83049906  0.70260332  1.0
  Ti  Ti2645  1  0.98042145  0.97335620  0.70260332  1.0
  Ti  Ti2646  1  0.05329345  0.02949135  0.73268371  1.0
  Ti  Ti2647  1  0.05329345  0.17234849  0.73268371  1.0
  Ti  Ti2648  1  0.05329345  0.31520564  0.73268371  1.0
  Ti  Ti2649  1  0.05329345  0.45806278  0.73268371  1.0
  Ti  Ti2650  1  0.05329345  0.60091992  0.73268371  1.0
  Ti  Ti2651  1  0.05329345  0.74377706  0.73268371  1.0
  Ti  Ti2652  1  0.05329345  0.88663421  0.73268371  1.0
  Ti  Ti2653  1  0.16440456  0.02949135  0.73268371  1.0
  Ti  Ti2654  1  0.16440456  0.17234849  0.73268371  1.0
  Ti  Ti2655  1  0.16440456  0.31520564  0.73268371  1.0
  Ti  Ti2656  1  0.16440456  0.45806278  0.73268371  1.0
  Ti  Ti2657  1  0.16440456  0.60091992  0.73268371  1.0
  Ti  Ti2658  1  0.16440456  0.74377706  0.73268371  1.0
  Ti  Ti2659  1  0.16440456  0.88663421  0.73268371  1.0
  Ti  Ti2660  1  0.27551567  0.02949135  0.73268371  1.0
  Ti  Ti2661  1  0.27551567  0.17234849  0.73268371  1.0
  Ti  Ti2662  1  0.27551567  0.31520564  0.73268371  1.0
  Ti  Ti2663  1  0.27551567  0.45806278  0.73268371  1.0
  Ti  Ti2664  1  0.27551567  0.60091992  0.73268371  1.0
  Ti  Ti2665  1  0.27551567  0.74377706  0.73268371  1.0
  Ti  Ti2666  1  0.27551567  0.88663421  0.73268371  1.0
  Ti  Ti2667  1  0.38662678  0.02949135  0.73268371  1.0
  Ti  Ti2668  1  0.38662678  0.17234849  0.73268371  1.0
  Ti  Ti2669  1  0.38662678  0.31520564  0.73268371  1.0
  Ti  Ti2670  1  0.38662678  0.45806278  0.73268371  1.0
  Ti  Ti2671  1  0.38662678  0.60091992  0.73268371  1.0
  Ti  Ti2672  1  0.38662678  0.74377706  0.73268371  1.0
  Ti  Ti2673  1  0.38662678  0.88663421  0.73268371  1.0
  Ti  Ti2674  1  0.49773789  0.02949135  0.73268371  1.0
  Ti  Ti2675  1  0.49773789  0.17234849  0.73268371  1.0
  Ti  Ti2676  1  0.49773789  0.31520564  0.73268371  1.0
  Ti  Ti2677  1  0.49773789  0.45806278  0.73268371  1.0
  Ti  Ti2678  1  0.49773789  0.60091992  0.73268371  1.0
  Ti  Ti2679  1  0.49773789  0.74377706  0.73268371  1.0
  Ti  Ti2680  1  0.49773789  0.88663421  0.73268371  1.0
  Ti  Ti2681  1  0.60884900  0.02949135  0.73268371  1.0
  Ti  Ti2682  1  0.60884900  0.17234849  0.73268371  1.0
  Ti  Ti2683  1  0.60884900  0.31520564  0.73268371  1.0
  Ti  Ti2684  1  0.60884900  0.45806278  0.73268371  1.0
  Ti  Ti2685  1  0.60884900  0.60091992  0.73268371  1.0
  Ti  Ti2686  1  0.60884900  0.74377706  0.73268371  1.0
  Ti  Ti2687  1  0.60884900  0.88663421  0.73268371  1.0
  Ti  Ti2688  1  0.71996011  0.02949135  0.73268371  1.0
  Ti  Ti2689  1  0.71996011  0.17234849  0.73268371  1.0
  Ti  Ti2690  1  0.71996011  0.31520564  0.73268371  1.0
  Ti  Ti2691  1  0.71996011  0.45806278  0.73268371  1.0
  Ti  Ti2692  1  0.71996011  0.60091992  0.73268371  1.0
  Ti  Ti2693  1  0.71996011  0.74377706  0.73268371  1.0
  Ti  Ti2694  1  0.71996011  0.88663421  0.73268371  1.0
  Ti  Ti2695  1  0.83107122  0.02949135  0.73268371  1.0
  Ti  Ti2696  1  0.83107122  0.17234849  0.73268371  1.0
  Ti  Ti2697  1  0.83107122  0.31520564  0.73268371  1.0
  Ti  Ti2698  1  0.83107122  0.45806278  0.73268371  1.0
  Ti  Ti2699  1  0.83107122  0.60091992  0.73268371  1.0
  Ti  Ti2700  1  0.83107122  0.74377706  0.73268371  1.0
  Ti  Ti2701  1  0.83107122  0.88663421  0.73268371  1.0
  Ti  Ti2702  1  0.94218233  0.02949135  0.73268371  1.0
  Ti  Ti2703  1  0.94218233  0.17234849  0.73268371  1.0
  Ti  Ti2704  1  0.94218233  0.31520564  0.73268371  1.0
  Ti  Ti2705  1  0.94218233  0.45806278  0.73268371  1.0
  Ti  Ti2706  1  0.94218233  0.60091992  0.73268371  1.0
  Ti  Ti2707  1  0.94218233  0.74377706  0.73268371  1.0
  Ti  Ti2708  1  0.94218233  0.88663421  0.73268371  1.0
  Ti  Ti2709  1  0.03212942  0.01588591  0.68506467  1.0
  Ti  Ti2710  1  0.03212942  0.15874305  0.68506467  1.0
  Ti  Ti2711  1  0.03212942  0.30160019  0.68506467  1.0
  Ti  Ti2712  1  0.03212942  0.44445734  0.68506467  1.0
  Ti  Ti2713  1  0.03212942  0.58731448  0.68506467  1.0
  Ti  Ti2714  1  0.03212942  0.73017162  0.68506467  1.0
  Ti  Ti2715  1  0.03212942  0.87302877  0.68506467  1.0
  Ti  Ti2716  1  0.14324054  0.01588591  0.68506467  1.0
  Ti  Ti2717  1  0.14324054  0.15874305  0.68506467  1.0
  Ti  Ti2718  1  0.14324054  0.30160019  0.68506467  1.0
  Ti  Ti2719  1  0.14324054  0.44445734  0.68506467  1.0
  Ti  Ti2720  1  0.14324054  0.58731448  0.68506467  1.0
  Ti  Ti2721  1  0.14324054  0.73017162  0.68506467  1.0
  Ti  Ti2722  1  0.14324054  0.87302877  0.68506467  1.0
  Ti  Ti2723  1  0.25435165  0.01588591  0.68506467  1.0
  Ti  Ti2724  1  0.25435165  0.15874305  0.68506467  1.0
  Ti  Ti2725  1  0.25435165  0.30160019  0.68506467  1.0
  Ti  Ti2726  1  0.25435165  0.44445734  0.68506467  1.0
  Ti  Ti2727  1  0.25435165  0.58731448  0.68506467  1.0
  Ti  Ti2728  1  0.25435165  0.73017162  0.68506467  1.0
  Ti  Ti2729  1  0.25435165  0.87302877  0.68506467  1.0
  Ti  Ti2730  1  0.36546276  0.01588591  0.68506467  1.0
  Ti  Ti2731  1  0.36546276  0.15874305  0.68506467  1.0
  Ti  Ti2732  1  0.36546276  0.30160019  0.68506467  1.0
  Ti  Ti2733  1  0.36546276  0.44445734  0.68506467  1.0
  Ti  Ti2734  1  0.36546276  0.58731448  0.68506467  1.0
  Ti  Ti2735  1  0.36546276  0.73017162  0.68506467  1.0
  Ti  Ti2736  1  0.36546276  0.87302877  0.68506467  1.0
  Ti  Ti2737  1  0.47657387  0.01588591  0.68506467  1.0
  Ti  Ti2738  1  0.47657387  0.15874305  0.68506467  1.0
  Ti  Ti2739  1  0.47657387  0.30160019  0.68506467  1.0
  Ti  Ti2740  1  0.47657387  0.44445734  0.68506467  1.0
  Ti  Ti2741  1  0.47657387  0.58731448  0.68506467  1.0
  Ti  Ti2742  1  0.47657387  0.73017162  0.68506467  1.0
  Ti  Ti2743  1  0.47657387  0.87302877  0.68506467  1.0
  Ti  Ti2744  1  0.58768498  0.01588591  0.68506467  1.0
  Ti  Ti2745  1  0.58768498  0.15874305  0.68506467  1.0
  Ti  Ti2746  1  0.58768498  0.30160019  0.68506467  1.0
  Ti  Ti2747  1  0.58768498  0.44445734  0.68506467  1.0
  Ti  Ti2748  1  0.58768498  0.58731448  0.68506467  1.0
  Ti  Ti2749  1  0.58768498  0.73017162  0.68506467  1.0
  Ti  Ti2750  1  0.58768498  0.87302877  0.68506467  1.0
  Ti  Ti2751  1  0.69879609  0.01588591  0.68506467  1.0
  Ti  Ti2752  1  0.69879609  0.15874305  0.68506467  1.0
  Ti  Ti2753  1  0.69879609  0.30160019  0.68506467  1.0
  Ti  Ti2754  1  0.69879609  0.44445734  0.68506467  1.0
  Ti  Ti2755  1  0.69879609  0.58731448  0.68506467  1.0
  Ti  Ti2756  1  0.69879609  0.73017162  0.68506467  1.0
  Ti  Ti2757  1  0.69879609  0.87302877  0.68506467  1.0
  Ti  Ti2758  1  0.80990720  0.01588591  0.68506467  1.0
  Ti  Ti2759  1  0.80990720  0.15874305  0.68506467  1.0
  Ti  Ti2760  1  0.80990720  0.30160019  0.68506467  1.0
  Ti  Ti2761  1  0.80990720  0.44445734  0.68506467  1.0
  Ti  Ti2762  1  0.80990720  0.58731448  0.68506467  1.0
  Ti  Ti2763  1  0.80990720  0.73017162  0.68506467  1.0
  Ti  Ti2764  1  0.80990720  0.87302877  0.68506467  1.0
  Ti  Ti2765  1  0.92101831  0.01588591  0.68506467  1.0
  Ti  Ti2766  1  0.92101831  0.15874305  0.68506467  1.0
  Ti  Ti2767  1  0.92101831  0.30160019  0.68506467  1.0
  Ti  Ti2768  1  0.92101831  0.44445734  0.68506467  1.0
  Ti  Ti2769  1  0.92101831  0.58731448  0.68506467  1.0
  Ti  Ti2770  1  0.92101831  0.73017162  0.68506467  1.0
  Ti  Ti2771  1  0.92101831  0.87302877  0.68506467  1.0
  P  P2772  1  0.10387412  0.03493915  0.26645967  1.0
  P  P2773  1  0.10387412  0.17779629  0.26645967  1.0
  P  P2774  1  0.10387412  0.32065343  0.26645967  1.0
  P  P2775  1  0.10387412  0.46351058  0.26645967  1.0
  P  P2776  1  0.10387412  0.60636772  0.26645967  1.0
  P  P2777  1  0.10387412  0.74922486  0.26645967  1.0
  P  P2778  1  0.10387412  0.89208200  0.26645967  1.0
  P  P2779  1  0.21498523  0.03493915  0.26645967  1.0
  P  P2780  1  0.21498523  0.17779629  0.26645967  1.0
  P  P2781  1  0.21498523  0.32065343  0.26645967  1.0
  P  P2782  1  0.21498523  0.46351058  0.26645967  1.0
  P  P2783  1  0.21498523  0.60636772  0.26645967  1.0
  P  P2784  1  0.21498523  0.74922486  0.26645967  1.0
  P  P2785  1  0.21498523  0.89208200  0.26645967  1.0
  P  P2786  1  0.32609634  0.03493915  0.26645967  1.0
  P  P2787  1  0.32609634  0.17779629  0.26645967  1.0
  P  P2788  1  0.32609634  0.32065343  0.26645967  1.0
  P  P2789  1  0.32609634  0.46351058  0.26645967  1.0
  P  P2790  1  0.32609634  0.60636772  0.26645967  1.0
  P  P2791  1  0.32609634  0.74922486  0.26645967  1.0
  P  P2792  1  0.32609634  0.89208200  0.26645967  1.0
  P  P2793  1  0.43720745  0.03493915  0.26645967  1.0
  P  P2794  1  0.43720745  0.17779629  0.26645967  1.0
  P  P2795  1  0.43720745  0.32065343  0.26645967  1.0
  P  P2796  1  0.43720745  0.46351058  0.26645967  1.0
  P  P2797  1  0.43720745  0.60636772  0.26645967  1.0
  P  P2798  1  0.43720745  0.74922486  0.26645967  1.0
  P  P2799  1  0.43720745  0.89208200  0.26645967  1.0
  P  P2800  1  0.54831856  0.03493915  0.26645967  1.0
  P  P2801  1  0.54831856  0.17779629  0.26645967  1.0
  P  P2802  1  0.54831856  0.32065343  0.26645967  1.0
  P  P2803  1  0.54831856  0.46351058  0.26645967  1.0
  P  P2804  1  0.54831856  0.60636772  0.26645967  1.0
  P  P2805  1  0.54831856  0.74922486  0.26645967  1.0
  P  P2806  1  0.54831856  0.89208200  0.26645967  1.0
  P  P2807  1  0.65942968  0.03493915  0.26645967  1.0
  P  P2808  1  0.65942968  0.17779629  0.26645967  1.0
  P  P2809  1  0.65942968  0.32065343  0.26645967  1.0
  P  P2810  1  0.65942968  0.46351058  0.26645967  1.0
  P  P2811  1  0.65942968  0.60636772  0.26645967  1.0
  P  P2812  1  0.65942968  0.74922486  0.26645967  1.0
  P  P2813  1  0.65942968  0.89208200  0.26645967  1.0
  P  P2814  1  0.77054079  0.03493915  0.26645967  1.0
  P  P2815  1  0.77054079  0.17779629  0.26645967  1.0
  P  P2816  1  0.77054079  0.32065343  0.26645967  1.0
  P  P2817  1  0.77054079  0.46351058  0.26645967  1.0
  P  P2818  1  0.77054079  0.60636772  0.26645967  1.0
  P  P2819  1  0.77054079  0.74922486  0.26645967  1.0
  P  P2820  1  0.77054079  0.89208200  0.26645967  1.0
  P  P2821  1  0.88165190  0.03493915  0.26645967  1.0
  P  P2822  1  0.88165190  0.17779629  0.26645967  1.0
  P  P2823  1  0.88165190  0.32065343  0.26645967  1.0
  P  P2824  1  0.88165190  0.46351058  0.26645967  1.0
  P  P2825  1  0.88165190  0.60636772  0.26645967  1.0
  P  P2826  1  0.88165190  0.74922486  0.26645967  1.0
  P  P2827  1  0.88165190  0.89208200  0.26645967  1.0
  P  P2828  1  0.99276301  0.03493915  0.26645967  1.0
  P  P2829  1  0.99276301  0.17779629  0.26645967  1.0
  P  P2830  1  0.99276301  0.32065343  0.26645967  1.0
  P  P2831  1  0.99276301  0.46351058  0.26645967  1.0
  P  P2832  1  0.99276301  0.60636772  0.26645967  1.0
  P  P2833  1  0.99276301  0.74922486  0.26645967  1.0
  P  P2834  1  0.99276301  0.89208200  0.26645967  1.0
  P  P2835  1  0.01392703  0.04854459  0.31407872  1.0
  P  P2836  1  0.01392703  0.19140173  0.31407872  1.0
  P  P2837  1  0.01392703  0.33425888  0.31407872  1.0
  P  P2838  1  0.01392703  0.47711602  0.31407872  1.0
  P  P2839  1  0.01392703  0.61997316  0.31407872  1.0
  P  P2840  1  0.01392703  0.76283030  0.31407872  1.0
  P  P2841  1  0.01392703  0.90568745  0.31407872  1.0
  P  P2842  1  0.12503814  0.04854459  0.31407872  1.0
  P  P2843  1  0.12503814  0.19140173  0.31407872  1.0
  P  P2844  1  0.12503814  0.33425888  0.31407872  1.0
  P  P2845  1  0.12503814  0.47711602  0.31407872  1.0
  P  P2846  1  0.12503814  0.61997316  0.31407872  1.0
  P  P2847  1  0.12503814  0.76283030  0.31407872  1.0
  P  P2848  1  0.12503814  0.90568745  0.31407872  1.0
  P  P2849  1  0.23614925  0.04854459  0.31407872  1.0
  P  P2850  1  0.23614925  0.19140173  0.31407872  1.0
  P  P2851  1  0.23614925  0.33425888  0.31407872  1.0
  P  P2852  1  0.23614925  0.47711602  0.31407872  1.0
  P  P2853  1  0.23614925  0.61997316  0.31407872  1.0
  P  P2854  1  0.23614925  0.76283030  0.31407872  1.0
  P  P2855  1  0.23614925  0.90568745  0.31407872  1.0
  P  P2856  1  0.34726036  0.04854459  0.31407872  1.0
  P  P2857  1  0.34726036  0.19140173  0.31407872  1.0
  P  P2858  1  0.34726036  0.33425888  0.31407872  1.0
  P  P2859  1  0.34726036  0.47711602  0.31407872  1.0
  P  P2860  1  0.34726036  0.61997316  0.31407872  1.0
  P  P2861  1  0.34726036  0.76283030  0.31407872  1.0
  P  P2862  1  0.34726036  0.90568745  0.31407872  1.0
  P  P2863  1  0.45837147  0.04854459  0.31407872  1.0
  P  P2864  1  0.45837147  0.19140173  0.31407872  1.0
  P  P2865  1  0.45837147  0.33425888  0.31407872  1.0
  P  P2866  1  0.45837147  0.47711602  0.31407872  1.0
  P  P2867  1  0.45837147  0.61997316  0.31407872  1.0
  P  P2868  1  0.45837147  0.76283030  0.31407872  1.0
  P  P2869  1  0.45837147  0.90568745  0.31407872  1.0
  P  P2870  1  0.56948259  0.04854459  0.31407872  1.0
  P  P2871  1  0.56948259  0.19140173  0.31407872  1.0
  P  P2872  1  0.56948259  0.33425888  0.31407872  1.0
  P  P2873  1  0.56948259  0.47711602  0.31407872  1.0
  P  P2874  1  0.56948259  0.61997316  0.31407872  1.0
  P  P2875  1  0.56948259  0.76283030  0.31407872  1.0
  P  P2876  1  0.56948259  0.90568745  0.31407872  1.0
  P  P2877  1  0.68059370  0.04854459  0.31407872  1.0
  P  P2878  1  0.68059370  0.19140173  0.31407872  1.0
  P  P2879  1  0.68059370  0.33425888  0.31407872  1.0
  P  P2880  1  0.68059370  0.47711602  0.31407872  1.0
  P  P2881  1  0.68059370  0.61997316  0.31407872  1.0
  P  P2882  1  0.68059370  0.76283030  0.31407872  1.0
  P  P2883  1  0.68059370  0.90568745  0.31407872  1.0
  P  P2884  1  0.79170481  0.04854459  0.31407872  1.0
  P  P2885  1  0.79170481  0.19140173  0.31407872  1.0
  P  P2886  1  0.79170481  0.33425888  0.31407872  1.0
  P  P2887  1  0.79170481  0.47711602  0.31407872  1.0
  P  P2888  1  0.79170481  0.61997316  0.31407872  1.0
  P  P2889  1  0.79170481  0.76283030  0.31407872  1.0
  P  P2890  1  0.79170481  0.90568745  0.31407872  1.0
  P  P2891  1  0.90281592  0.04854459  0.31407872  1.0
  P  P2892  1  0.90281592  0.19140173  0.31407872  1.0
  P  P2893  1  0.90281592  0.33425888  0.31407872  1.0
  P  P2894  1  0.90281592  0.47711602  0.31407872  1.0
  P  P2895  1  0.90281592  0.61997316  0.31407872  1.0
  P  P2896  1  0.90281592  0.76283030  0.31407872  1.0
  P  P2897  1  0.90281592  0.90568745  0.31407872  1.0
  P  P2898  1  0.08271010  0.02133371  0.21884062  1.0
  P  P2899  1  0.08271010  0.16419085  0.21884062  1.0
  P  P2900  1  0.08271010  0.30704799  0.21884062  1.0
  P  P2901  1  0.08271010  0.44990513  0.21884062  1.0
  P  P2902  1  0.08271010  0.59276228  0.21884062  1.0
  P  P2903  1  0.08271010  0.73561942  0.21884062  1.0
  P  P2904  1  0.08271010  0.87847656  0.21884062  1.0
  P  P2905  1  0.19382121  0.02133371  0.21884062  1.0
  P  P2906  1  0.19382121  0.16419085  0.21884062  1.0
  P  P2907  1  0.19382121  0.30704799  0.21884062  1.0
  P  P2908  1  0.19382121  0.44990513  0.21884062  1.0
  P  P2909  1  0.19382121  0.59276228  0.21884062  1.0
  P  P2910  1  0.19382121  0.73561942  0.21884062  1.0
  P  P2911  1  0.19382121  0.87847656  0.21884062  1.0
  P  P2912  1  0.30493232  0.02133371  0.21884062  1.0
  P  P2913  1  0.30493232  0.16419085  0.21884062  1.0
  P  P2914  1  0.30493232  0.30704799  0.21884062  1.0
  P  P2915  1  0.30493232  0.44990513  0.21884062  1.0
  P  P2916  1  0.30493232  0.59276228  0.21884062  1.0
  P  P2917  1  0.30493232  0.73561942  0.21884062  1.0
  P  P2918  1  0.30493232  0.87847656  0.21884062  1.0
  P  P2919  1  0.41604343  0.02133371  0.21884062  1.0
  P  P2920  1  0.41604343  0.16419085  0.21884062  1.0
  P  P2921  1  0.41604343  0.30704799  0.21884062  1.0
  P  P2922  1  0.41604343  0.44990513  0.21884062  1.0
  P  P2923  1  0.41604343  0.59276228  0.21884062  1.0
  P  P2924  1  0.41604343  0.73561942  0.21884062  1.0
  P  P2925  1  0.41604343  0.87847656  0.21884062  1.0
  P  P2926  1  0.52715454  0.02133371  0.21884062  1.0
  P  P2927  1  0.52715454  0.16419085  0.21884062  1.0
  P  P2928  1  0.52715454  0.30704799  0.21884062  1.0
  P  P2929  1  0.52715454  0.44990513  0.21884062  1.0
  P  P2930  1  0.52715454  0.59276228  0.21884062  1.0
  P  P2931  1  0.52715454  0.73561942  0.21884062  1.0
  P  P2932  1  0.52715454  0.87847656  0.21884062  1.0
  P  P2933  1  0.63826565  0.02133371  0.21884062  1.0
  P  P2934  1  0.63826565  0.16419085  0.21884062  1.0
  P  P2935  1  0.63826565  0.30704799  0.21884062  1.0
  P  P2936  1  0.63826565  0.44990513  0.21884062  1.0
  P  P2937  1  0.63826565  0.59276228  0.21884062  1.0
  P  P2938  1  0.63826565  0.73561942  0.21884062  1.0
  P  P2939  1  0.63826565  0.87847656  0.21884062  1.0
  P  P2940  1  0.74937677  0.02133371  0.21884062  1.0
  P  P2941  1  0.74937677  0.16419085  0.21884062  1.0
  P  P2942  1  0.74937677  0.30704799  0.21884062  1.0
  P  P2943  1  0.74937677  0.44990513  0.21884062  1.0
  P  P2944  1  0.74937677  0.59276228  0.21884062  1.0
  P  P2945  1  0.74937677  0.73561942  0.21884062  1.0
  P  P2946  1  0.74937677  0.87847656  0.21884062  1.0
  P  P2947  1  0.86048788  0.02133371  0.21884062  1.0
  P  P2948  1  0.86048788  0.16419085  0.21884062  1.0
  P  P2949  1  0.86048788  0.30704799  0.21884062  1.0
  P  P2950  1  0.86048788  0.44990513  0.21884062  1.0
  P  P2951  1  0.86048788  0.59276228  0.21884062  1.0
  P  P2952  1  0.86048788  0.73561942  0.21884062  1.0
  P  P2953  1  0.86048788  0.87847656  0.21884062  1.0
  P  P2954  1  0.97159899  0.02133371  0.21884062  1.0
  P  P2955  1  0.97159899  0.16419085  0.21884062  1.0
  P  P2956  1  0.97159899  0.30704799  0.21884062  1.0
  P  P2957  1  0.97159899  0.44990513  0.21884062  1.0
  P  P2958  1  0.97159899  0.59276228  0.21884062  1.0
  P  P2959  1  0.97159899  0.73561942  0.21884062  1.0
  P  P2960  1  0.97159899  0.87847656  0.21884062  1.0
  P  P2961  1  0.08327993  0.13797643  0.26406545  1.0
  P  P2962  1  0.08327993  0.28083357  0.26406545  1.0
  P  P2963  1  0.08327993  0.42369072  0.26406545  1.0
  P  P2964  1  0.08327993  0.56654786  0.26406545  1.0
  P  P2965  1  0.08327993  0.70940500  0.26406545  1.0
  P  P2966  1  0.08327993  0.85226215  0.26406545  1.0
  P  P2967  1  0.08327993  0.99511929  0.26406545  1.0
  P  P2968  1  0.19439104  0.13797643  0.26406545  1.0
  P  P2969  1  0.19439104  0.28083357  0.26406545  1.0
  P  P2970  1  0.19439104  0.42369072  0.26406545  1.0
  P  P2971  1  0.19439104  0.56654786  0.26406545  1.0
  P  P2972  1  0.19439104  0.70940500  0.26406545  1.0
  P  P2973  1  0.19439104  0.85226215  0.26406545  1.0
  P  P2974  1  0.19439104  0.99511929  0.26406545  1.0
  P  P2975  1  0.30550215  0.13797643  0.26406545  1.0
  P  P2976  1  0.30550215  0.28083357  0.26406545  1.0
  P  P2977  1  0.30550215  0.42369072  0.26406545  1.0
  P  P2978  1  0.30550215  0.56654786  0.26406545  1.0
  P  P2979  1  0.30550215  0.70940500  0.26406545  1.0
  P  P2980  1  0.30550215  0.85226215  0.26406545  1.0
  P  P2981  1  0.30550215  0.99511929  0.26406545  1.0
  P  P2982  1  0.41661326  0.13797643  0.26406545  1.0
  P  P2983  1  0.41661326  0.28083357  0.26406545  1.0
  P  P2984  1  0.41661326  0.42369072  0.26406545  1.0
  P  P2985  1  0.41661326  0.56654786  0.26406545  1.0
  P  P2986  1  0.41661326  0.70940500  0.26406545  1.0
  P  P2987  1  0.41661326  0.85226215  0.26406545  1.0
  P  P2988  1  0.41661326  0.99511929  0.26406545  1.0
  P  P2989  1  0.52772437  0.13797643  0.26406545  1.0
  P  P2990  1  0.52772437  0.28083357  0.26406545  1.0
  P  P2991  1  0.52772437  0.42369072  0.26406545  1.0
  P  P2992  1  0.52772437  0.56654786  0.26406545  1.0
  P  P2993  1  0.52772437  0.70940500  0.26406545  1.0
  P  P2994  1  0.52772437  0.85226215  0.26406545  1.0
  P  P2995  1  0.52772437  0.99511929  0.26406545  1.0
  P  P2996  1  0.63883548  0.13797643  0.26406545  1.0
  P  P2997  1  0.63883548  0.28083357  0.26406545  1.0
  P  P2998  1  0.63883548  0.42369072  0.26406545  1.0
  P  P2999  1  0.63883548  0.56654786  0.26406545  1.0
  P  P3000  1  0.63883548  0.70940500  0.26406545  1.0
  P  P3001  1  0.63883548  0.85226215  0.26406545  1.0
  P  P3002  1  0.63883548  0.99511929  0.26406545  1.0
  P  P3003  1  0.74994659  0.13797643  0.26406545  1.0
  P  P3004  1  0.74994659  0.28083357  0.26406545  1.0
  P  P3005  1  0.74994659  0.42369072  0.26406545  1.0
  P  P3006  1  0.74994659  0.56654786  0.26406545  1.0
  P  P3007  1  0.74994659  0.70940500  0.26406545  1.0
  P  P3008  1  0.74994659  0.85226215  0.26406545  1.0
  P  P3009  1  0.74994659  0.99511929  0.26406545  1.0
  P  P3010  1  0.86105770  0.13797643  0.26406545  1.0
  P  P3011  1  0.86105770  0.28083357  0.26406545  1.0
  P  P3012  1  0.86105770  0.42369072  0.26406545  1.0
  P  P3013  1  0.86105770  0.56654786  0.26406545  1.0
  P  P3014  1  0.86105770  0.70940500  0.26406545  1.0
  P  P3015  1  0.86105770  0.85226215  0.26406545  1.0
  P  P3016  1  0.86105770  0.99511929  0.26406545  1.0
  P  P3017  1  0.97216882  0.13797643  0.26406545  1.0
  P  P3018  1  0.97216882  0.28083357  0.26406545  1.0
  P  P3019  1  0.97216882  0.42369072  0.26406545  1.0
  P  P3020  1  0.97216882  0.56654786  0.26406545  1.0
  P  P3021  1  0.97216882  0.70940500  0.26406545  1.0
  P  P3022  1  0.97216882  0.85226215  0.26406545  1.0
  P  P3023  1  0.97216882  0.99511929  0.26406545  1.0
  P  P3024  1  0.10444395  0.00872473  0.31168450  1.0
  P  P3025  1  0.10444395  0.15158187  0.31168450  1.0
  P  P3026  1  0.10444395  0.29443902  0.31168450  1.0
  P  P3027  1  0.10444395  0.43729616  0.31168450  1.0
  P  P3028  1  0.10444395  0.58015330  0.31168450  1.0
  P  P3029  1  0.10444395  0.72301045  0.31168450  1.0
  P  P3030  1  0.10444395  0.86586759  0.31168450  1.0
  P  P3031  1  0.21555506  0.00872473  0.31168450  1.0
  P  P3032  1  0.21555506  0.15158187  0.31168450  1.0
  P  P3033  1  0.21555506  0.29443902  0.31168450  1.0
  P  P3034  1  0.21555506  0.43729616  0.31168450  1.0
  P  P3035  1  0.21555506  0.58015330  0.31168450  1.0
  P  P3036  1  0.21555506  0.72301045  0.31168450  1.0
  P  P3037  1  0.21555506  0.86586759  0.31168450  1.0
  P  P3038  1  0.32666617  0.00872473  0.31168450  1.0
  P  P3039  1  0.32666617  0.15158187  0.31168450  1.0
  P  P3040  1  0.32666617  0.29443902  0.31168450  1.0
  P  P3041  1  0.32666617  0.43729616  0.31168450  1.0
  P  P3042  1  0.32666617  0.58015330  0.31168450  1.0
  P  P3043  1  0.32666617  0.72301045  0.31168450  1.0
  P  P3044  1  0.32666617  0.86586759  0.31168450  1.0
  P  P3045  1  0.43777728  0.00872473  0.31168450  1.0
  P  P3046  1  0.43777728  0.15158187  0.31168450  1.0
  P  P3047  1  0.43777728  0.29443902  0.31168450  1.0
  P  P3048  1  0.43777728  0.43729616  0.31168450  1.0
  P  P3049  1  0.43777728  0.58015330  0.31168450  1.0
  P  P3050  1  0.43777728  0.72301045  0.31168450  1.0
  P  P3051  1  0.43777728  0.86586759  0.31168450  1.0
  P  P3052  1  0.54888839  0.00872473  0.31168450  1.0
  P  P3053  1  0.54888839  0.15158187  0.31168450  1.0
  P  P3054  1  0.54888839  0.29443902  0.31168450  1.0
  P  P3055  1  0.54888839  0.43729616  0.31168450  1.0
  P  P3056  1  0.54888839  0.58015330  0.31168450  1.0
  P  P3057  1  0.54888839  0.72301045  0.31168450  1.0
  P  P3058  1  0.54888839  0.86586759  0.31168450  1.0
  P  P3059  1  0.65999950  0.00872473  0.31168450  1.0
  P  P3060  1  0.65999950  0.15158187  0.31168450  1.0
  P  P3061  1  0.65999950  0.29443902  0.31168450  1.0
  P  P3062  1  0.65999950  0.43729616  0.31168450  1.0
  P  P3063  1  0.65999950  0.58015330  0.31168450  1.0
  P  P3064  1  0.65999950  0.72301045  0.31168450  1.0
  P  P3065  1  0.65999950  0.86586759  0.31168450  1.0
  P  P3066  1  0.77111061  0.00872473  0.31168450  1.0
  P  P3067  1  0.77111061  0.15158187  0.31168450  1.0
  P  P3068  1  0.77111061  0.29443902  0.31168450  1.0
  P  P3069  1  0.77111061  0.43729616  0.31168450  1.0
  P  P3070  1  0.77111061  0.58015330  0.31168450  1.0
  P  P3071  1  0.77111061  0.72301045  0.31168450  1.0
  P  P3072  1  0.77111061  0.86586759  0.31168450  1.0
  P  P3073  1  0.88222173  0.00872473  0.31168450  1.0
  P  P3074  1  0.88222173  0.15158187  0.31168450  1.0
  P  P3075  1  0.88222173  0.29443902  0.31168450  1.0
  P  P3076  1  0.88222173  0.43729616  0.31168450  1.0
  P  P3077  1  0.88222173  0.58015330  0.31168450  1.0
  P  P3078  1  0.88222173  0.72301045  0.31168450  1.0
  P  P3079  1  0.88222173  0.86586759  0.31168450  1.0
  P  P3080  1  0.99333284  0.00872473  0.31168450  1.0
  P  P3081  1  0.99333284  0.15158187  0.31168450  1.0
  P  P3082  1  0.99333284  0.29443902  0.31168450  1.0
  P  P3083  1  0.99333284  0.43729616  0.31168450  1.0
  P  P3084  1  0.99333284  0.58015330  0.31168450  1.0
  P  P3085  1  0.99333284  0.72301045  0.31168450  1.0
  P  P3086  1  0.99333284  0.86586759  0.31168450  1.0
  P  P3087  1  0.06211591  0.12437099  0.21644641  1.0
  P  P3088  1  0.06211590  0.26722813  0.21644641  1.0
  P  P3089  1  0.06211590  0.41008528  0.21644641  1.0
  P  P3090  1  0.06211590  0.55294242  0.21644641  1.0
  P  P3091  1  0.06211590  0.69579956  0.21644641  1.0
  P  P3092  1  0.06211590  0.83865670  0.21644641  1.0
  P  P3093  1  0.06211590  0.98151385  0.21644641  1.0
  P  P3094  1  0.17322702  0.12437099  0.21644641  1.0
  P  P3095  1  0.17322702  0.26722813  0.21644641  1.0
  P  P3096  1  0.17322702  0.41008528  0.21644641  1.0
  P  P3097  1  0.17322702  0.55294242  0.21644641  1.0
  P  P3098  1  0.17322702  0.69579956  0.21644641  1.0
  P  P3099  1  0.17322702  0.83865670  0.21644641  1.0
  P  P3100  1  0.17322702  0.98151385  0.21644641  1.0
  P  P3101  1  0.28433813  0.12437099  0.21644641  1.0
  P  P3102  1  0.28433813  0.26722813  0.21644641  1.0
  P  P3103  1  0.28433813  0.41008528  0.21644641  1.0
  P  P3104  1  0.28433813  0.55294242  0.21644641  1.0
  P  P3105  1  0.28433813  0.69579956  0.21644641  1.0
  P  P3106  1  0.28433813  0.83865670  0.21644641  1.0
  P  P3107  1  0.28433813  0.98151385  0.21644641  1.0
  P  P3108  1  0.39544924  0.12437099  0.21644641  1.0
  P  P3109  1  0.39544924  0.26722813  0.21644641  1.0
  P  P3110  1  0.39544924  0.41008528  0.21644641  1.0
  P  P3111  1  0.39544924  0.55294242  0.21644641  1.0
  P  P3112  1  0.39544924  0.69579956  0.21644641  1.0
  P  P3113  1  0.39544924  0.83865670  0.21644641  1.0
  P  P3114  1  0.39544924  0.98151385  0.21644641  1.0
  P  P3115  1  0.50656035  0.12437099  0.21644641  1.0
  P  P3116  1  0.50656035  0.26722813  0.21644641  1.0
  P  P3117  1  0.50656035  0.41008528  0.21644641  1.0
  P  P3118  1  0.50656035  0.55294242  0.21644641  1.0
  P  P3119  1  0.50656035  0.69579956  0.21644641  1.0
  P  P3120  1  0.50656035  0.83865670  0.21644641  1.0
  P  P3121  1  0.50656035  0.98151385  0.21644641  1.0
  P  P3122  1  0.61767146  0.12437099  0.21644641  1.0
  P  P3123  1  0.61767146  0.26722813  0.21644641  1.0
  P  P3124  1  0.61767146  0.41008528  0.21644641  1.0
  P  P3125  1  0.61767146  0.55294242  0.21644641  1.0
  P  P3126  1  0.61767146  0.69579956  0.21644641  1.0
  P  P3127  1  0.61767146  0.83865670  0.21644641  1.0
  P  P3128  1  0.61767146  0.98151385  0.21644641  1.0
  P  P3129  1  0.72878257  0.12437099  0.21644641  1.0
  P  P3130  1  0.72878257  0.26722813  0.21644641  1.0
  P  P3131  1  0.72878257  0.41008528  0.21644641  1.0
  P  P3132  1  0.72878257  0.55294242  0.21644641  1.0
  P  P3133  1  0.72878257  0.69579956  0.21644641  1.0
  P  P3134  1  0.72878257  0.83865670  0.21644641  1.0
  P  P3135  1  0.72878257  0.98151385  0.21644641  1.0
  P  P3136  1  0.83989368  0.12437099  0.21644641  1.0
  P  P3137  1  0.83989368  0.26722813  0.21644641  1.0
  P  P3138  1  0.83989368  0.41008528  0.21644641  1.0
  P  P3139  1  0.83989368  0.55294242  0.21644641  1.0
  P  P3140  1  0.83989368  0.69579956  0.21644641  1.0
  P  P3141  1  0.83989368  0.83865670  0.21644641  1.0
  P  P3142  1  0.83989368  0.98151385  0.21644641  1.0
  P  P3143  1  0.95100479  0.12437099  0.21644641  1.0
  P  P3144  1  0.95100479  0.26722813  0.21644641  1.0
  P  P3145  1  0.95100479  0.41008528  0.21644641  1.0
  P  P3146  1  0.95100479  0.55294242  0.21644641  1.0
  P  P3147  1  0.95100479  0.69579956  0.21644641  1.0
  P  P3148  1  0.95100479  0.83865670  0.21644641  1.0
  P  P3149  1  0.95100479  0.98151385  0.21644641  1.0
  P  P3150  1  0.05411646  0.07095914  0.27950494  1.0
  P  P3151  1  0.05411646  0.21381628  0.27950494  1.0
  P  P3152  1  0.05411646  0.35667343  0.27950494  1.0
  P  P3153  1  0.05411646  0.49953057  0.27950494  1.0
  P  P3154  1  0.05411646  0.64238771  0.27950494  1.0
  P  P3155  1  0.05411646  0.78524486  0.27950494  1.0
  P  P3156  1  0.05411646  0.92810200  0.27950494  1.0
  P  P3157  1  0.16522757  0.07095914  0.27950494  1.0
  P  P3158  1  0.16522757  0.21381628  0.27950494  1.0
  P  P3159  1  0.16522757  0.35667343  0.27950494  1.0
  P  P3160  1  0.16522757  0.49953057  0.27950494  1.0
  P  P3161  1  0.16522757  0.64238771  0.27950494  1.0
  P  P3162  1  0.16522757  0.78524486  0.27950494  1.0
  P  P3163  1  0.16522757  0.92810200  0.27950494  1.0
  P  P3164  1  0.27633868  0.07095914  0.27950494  1.0
  P  P3165  1  0.27633868  0.21381628  0.27950494  1.0
  P  P3166  1  0.27633868  0.35667343  0.27950494  1.0
  P  P3167  1  0.27633868  0.49953057  0.27950494  1.0
  P  P3168  1  0.27633868  0.64238771  0.27950494  1.0
  P  P3169  1  0.27633868  0.78524486  0.27950494  1.0
  P  P3170  1  0.27633868  0.92810200  0.27950494  1.0
  P  P3171  1  0.38744979  0.07095914  0.27950494  1.0
  P  P3172  1  0.38744979  0.21381628  0.27950494  1.0
  P  P3173  1  0.38744979  0.35667343  0.27950494  1.0
  P  P3174  1  0.38744979  0.49953057  0.27950494  1.0
  P  P3175  1  0.38744979  0.64238771  0.27950494  1.0
  P  P3176  1  0.38744979  0.78524486  0.27950494  1.0
  P  P3177  1  0.38744979  0.92810200  0.27950494  1.0
  P  P3178  1  0.49856090  0.07095914  0.27950494  1.0
  P  P3179  1  0.49856090  0.21381628  0.27950494  1.0
  P  P3180  1  0.49856090  0.35667343  0.27950494  1.0
  P  P3181  1  0.49856090  0.49953057  0.27950494  1.0
  P  P3182  1  0.49856090  0.64238771  0.27950494  1.0
  P  P3183  1  0.49856090  0.78524486  0.27950494  1.0
  P  P3184  1  0.49856090  0.92810200  0.27950494  1.0
  P  P3185  1  0.60967202  0.07095914  0.27950494  1.0
  P  P3186  1  0.60967202  0.21381628  0.27950494  1.0
  P  P3187  1  0.60967202  0.35667343  0.27950494  1.0
  P  P3188  1  0.60967202  0.49953057  0.27950494  1.0
  P  P3189  1  0.60967202  0.64238771  0.27950494  1.0
  P  P3190  1  0.60967202  0.78524486  0.27950494  1.0
  P  P3191  1  0.60967202  0.92810200  0.27950494  1.0
  P  P3192  1  0.72078313  0.07095914  0.27950494  1.0
  P  P3193  1  0.72078313  0.21381628  0.27950494  1.0
  P  P3194  1  0.72078313  0.35667343  0.27950494  1.0
  P  P3195  1  0.72078313  0.49953057  0.27950494  1.0
  P  P3196  1  0.72078313  0.64238771  0.27950494  1.0
  P  P3197  1  0.72078313  0.78524486  0.27950494  1.0
  P  P3198  1  0.72078313  0.92810200  0.27950494  1.0
  P  P3199  1  0.83189424  0.07095914  0.27950494  1.0
  P  P3200  1  0.83189424  0.21381628  0.27950494  1.0
  P  P3201  1  0.83189424  0.35667343  0.27950494  1.0
  P  P3202  1  0.83189424  0.49953057  0.27950494  1.0
  P  P3203  1  0.83189424  0.64238771  0.27950494  1.0
  P  P3204  1  0.83189424  0.78524486  0.27950494  1.0
  P  P3205  1  0.83189424  0.92810200  0.27950494  1.0
  P  P3206  1  0.94300535  0.07095914  0.27950494  1.0
  P  P3207  1  0.94300535  0.21381628  0.27950494  1.0
  P  P3208  1  0.94300535  0.35667343  0.27950494  1.0
  P  P3209  1  0.94300535  0.49953057  0.27950494  1.0
  P  P3210  1  0.94300535  0.64238771  0.27950494  1.0
  P  P3211  1  0.94300535  0.78524486  0.27950494  1.0
  P  P3212  1  0.94300535  0.92810200  0.27950494  1.0
  P  P3213  1  0.07528048  0.08456458  0.32712398  1.0
  P  P3214  1  0.07528048  0.22742173  0.32712398  1.0
  P  P3215  1  0.07528048  0.37027887  0.32712398  1.0
  P  P3216  1  0.07528048  0.51313601  0.32712398  1.0
  P  P3217  1  0.07528048  0.65599315  0.32712398  1.0
  P  P3218  1  0.07528048  0.79885030  0.32712398  1.0
  P  P3219  1  0.07528048  0.94170744  0.32712398  1.0
  P  P3220  1  0.18639159  0.08456458  0.32712398  1.0
  P  P3221  1  0.18639159  0.22742173  0.32712398  1.0
  P  P3222  1  0.18639159  0.37027887  0.32712398  1.0
  P  P3223  1  0.18639159  0.51313601  0.32712398  1.0
  P  P3224  1  0.18639159  0.65599315  0.32712398  1.0
  P  P3225  1  0.18639159  0.79885030  0.32712398  1.0
  P  P3226  1  0.18639159  0.94170744  0.32712398  1.0
  P  P3227  1  0.29750270  0.08456458  0.32712398  1.0
  P  P3228  1  0.29750270  0.22742173  0.32712398  1.0
  P  P3229  1  0.29750270  0.37027887  0.32712398  1.0
  P  P3230  1  0.29750270  0.51313601  0.32712398  1.0
  P  P3231  1  0.29750270  0.65599315  0.32712398  1.0
  P  P3232  1  0.29750270  0.79885030  0.32712398  1.0
  P  P3233  1  0.29750270  0.94170744  0.32712398  1.0
  P  P3234  1  0.40861381  0.08456458  0.32712398  1.0
  P  P3235  1  0.40861381  0.22742173  0.32712398  1.0
  P  P3236  1  0.40861381  0.37027887  0.32712398  1.0
  P  P3237  1  0.40861381  0.51313601  0.32712398  1.0
  P  P3238  1  0.40861381  0.65599315  0.32712398  1.0
  P  P3239  1  0.40861381  0.79885030  0.32712398  1.0
  P  P3240  1  0.40861381  0.94170744  0.32712398  1.0
  P  P3241  1  0.51972493  0.08456458  0.32712398  1.0
  P  P3242  1  0.51972493  0.22742173  0.32712398  1.0
  P  P3243  1  0.51972493  0.37027887  0.32712398  1.0
  P  P3244  1  0.51972493  0.51313601  0.32712398  1.0
  P  P3245  1  0.51972493  0.65599315  0.32712398  1.0
  P  P3246  1  0.51972493  0.79885030  0.32712398  1.0
  P  P3247  1  0.51972493  0.94170744  0.32712398  1.0
  P  P3248  1  0.63083604  0.08456458  0.32712398  1.0
  P  P3249  1  0.63083604  0.22742173  0.32712398  1.0
  P  P3250  1  0.63083604  0.37027887  0.32712398  1.0
  P  P3251  1  0.63083604  0.51313601  0.32712398  1.0
  P  P3252  1  0.63083604  0.65599315  0.32712398  1.0
  P  P3253  1  0.63083604  0.79885030  0.32712398  1.0
  P  P3254  1  0.63083604  0.94170744  0.32712398  1.0
  P  P3255  1  0.74194715  0.08456458  0.32712398  1.0
  P  P3256  1  0.74194715  0.22742173  0.32712398  1.0
  P  P3257  1  0.74194715  0.37027887  0.32712398  1.0
  P  P3258  1  0.74194715  0.51313601  0.32712398  1.0
  P  P3259  1  0.74194715  0.65599315  0.32712398  1.0
  P  P3260  1  0.74194715  0.79885030  0.32712398  1.0
  P  P3261  1  0.74194715  0.94170744  0.32712398  1.0
  P  P3262  1  0.85305826  0.08456458  0.32712398  1.0
  P  P3263  1  0.85305826  0.22742173  0.32712398  1.0
  P  P3264  1  0.85305826  0.37027887  0.32712398  1.0
  P  P3265  1  0.85305826  0.51313601  0.32712398  1.0
  P  P3266  1  0.85305826  0.65599315  0.32712398  1.0
  P  P3267  1  0.85305826  0.79885030  0.32712398  1.0
  P  P3268  1  0.85305826  0.94170744  0.32712398  1.0
  P  P3269  1  0.96416937  0.08456458  0.32712398  1.0
  P  P3270  1  0.96416937  0.22742173  0.32712398  1.0
  P  P3271  1  0.96416937  0.37027887  0.32712398  1.0
  P  P3272  1  0.96416937  0.51313601  0.32712398  1.0
  P  P3273  1  0.96416937  0.65599315  0.32712398  1.0
  P  P3274  1  0.96416937  0.79885030  0.32712398  1.0
  P  P3275  1  0.96416937  0.94170744  0.32712398  1.0
  P  P3276  1  0.03295244  0.05735370  0.23188589  1.0
  P  P3277  1  0.03295244  0.20021084  0.23188589  1.0
  P  P3278  1  0.03295244  0.34306798  0.23188589  1.0
  P  P3279  1  0.03295244  0.48592513  0.23188589  1.0
  P  P3280  1  0.03295244  0.62878227  0.23188589  1.0
  P  P3281  1  0.03295244  0.77163941  0.23188589  1.0
  P  P3282  1  0.03295244  0.91449656  0.23188589  1.0
  P  P3283  1  0.14406355  0.05735370  0.23188589  1.0
  P  P3284  1  0.14406355  0.20021084  0.23188589  1.0
  P  P3285  1  0.14406355  0.34306798  0.23188589  1.0
  P  P3286  1  0.14406355  0.48592513  0.23188589  1.0
  P  P3287  1  0.14406355  0.62878227  0.23188589  1.0
  P  P3288  1  0.14406355  0.77163941  0.23188589  1.0
  P  P3289  1  0.14406355  0.91449656  0.23188589  1.0
  P  P3290  1  0.25517466  0.05735370  0.23188589  1.0
  P  P3291  1  0.25517466  0.20021084  0.23188589  1.0
  P  P3292  1  0.25517466  0.34306798  0.23188589  1.0
  P  P3293  1  0.25517466  0.48592513  0.23188589  1.0
  P  P3294  1  0.25517466  0.62878227  0.23188589  1.0
  P  P3295  1  0.25517466  0.77163941  0.23188589  1.0
  P  P3296  1  0.25517466  0.91449656  0.23188589  1.0
  P  P3297  1  0.36628577  0.05735370  0.23188589  1.0
  P  P3298  1  0.36628577  0.20021084  0.23188589  1.0
  P  P3299  1  0.36628577  0.34306798  0.23188589  1.0
  P  P3300  1  0.36628577  0.48592513  0.23188589  1.0
  P  P3301  1  0.36628577  0.62878227  0.23188589  1.0
  P  P3302  1  0.36628577  0.77163941  0.23188589  1.0
  P  P3303  1  0.36628577  0.91449656  0.23188589  1.0
  P  P3304  1  0.47739688  0.05735370  0.23188589  1.0
  P  P3305  1  0.47739688  0.20021084  0.23188589  1.0
  P  P3306  1  0.47739688  0.34306798  0.23188589  1.0
  P  P3307  1  0.47739688  0.48592513  0.23188589  1.0
  P  P3308  1  0.47739688  0.62878227  0.23188589  1.0
  P  P3309  1  0.47739688  0.77163941  0.23188589  1.0
  P  P3310  1  0.47739688  0.91449656  0.23188589  1.0
  P  P3311  1  0.58850799  0.05735370  0.23188589  1.0
  P  P3312  1  0.58850799  0.20021084  0.23188589  1.0
  P  P3313  1  0.58850799  0.34306798  0.23188589  1.0
  P  P3314  1  0.58850799  0.48592513  0.23188589  1.0
  P  P3315  1  0.58850799  0.62878227  0.23188589  1.0
  P  P3316  1  0.58850799  0.77163941  0.23188589  1.0
  P  P3317  1  0.58850799  0.91449656  0.23188589  1.0
  P  P3318  1  0.69961911  0.05735370  0.23188589  1.0
  P  P3319  1  0.69961911  0.20021084  0.23188589  1.0
  P  P3320  1  0.69961911  0.34306798  0.23188589  1.0
  P  P3321  1  0.69961911  0.48592513  0.23188589  1.0
  P  P3322  1  0.69961911  0.62878227  0.23188589  1.0
  P  P3323  1  0.69961911  0.77163941  0.23188589  1.0
  P  P3324  1  0.69961911  0.91449656  0.23188589  1.0
  P  P3325  1  0.81073022  0.05735370  0.23188589  1.0
  P  P3326  1  0.81073022  0.20021084  0.23188589  1.0
  P  P3327  1  0.81073022  0.34306798  0.23188589  1.0
  P  P3328  1  0.81073022  0.48592513  0.23188589  1.0
  P  P3329  1  0.81073022  0.62878227  0.23188589  1.0
  P  P3330  1  0.81073022  0.77163941  0.23188589  1.0
  P  P3331  1  0.81073022  0.91449656  0.23188589  1.0
  P  P3332  1  0.92184133  0.05735370  0.23188589  1.0
  P  P3333  1  0.92184133  0.20021084  0.23188589  1.0
  P  P3334  1  0.92184133  0.34306798  0.23188589  1.0
  P  P3335  1  0.92184133  0.48592513  0.23188589  1.0
  P  P3336  1  0.92184133  0.62878227  0.23188589  1.0
  P  P3337  1  0.92184133  0.77163941  0.23188589  1.0
  P  P3338  1  0.92184133  0.91449656  0.23188589  1.0
  P  P3339  1  0.02192647  0.10195644  0.25102019  1.0
  P  P3340  1  0.02192647  0.24481358  0.25102019  1.0
  P  P3341  1  0.02192647  0.38767072  0.25102019  1.0
  P  P3342  1  0.02192647  0.53052787  0.25102019  1.0
  P  P3343  1  0.02192647  0.67338501  0.25102019  1.0
  P  P3344  1  0.02192647  0.81624215  0.25102019  1.0
  P  P3345  1  0.02192647  0.95909930  0.25102019  1.0
  P  P3346  1  0.13303759  0.10195644  0.25102019  1.0
  P  P3347  1  0.13303759  0.24481358  0.25102019  1.0
  P  P3348  1  0.13303759  0.38767072  0.25102019  1.0
  P  P3349  1  0.13303759  0.53052787  0.25102019  1.0
  P  P3350  1  0.13303759  0.67338501  0.25102019  1.0
  P  P3351  1  0.13303759  0.81624215  0.25102019  1.0
  P  P3352  1  0.13303759  0.95909930  0.25102019  1.0
  P  P3353  1  0.24414870  0.10195644  0.25102019  1.0
  P  P3354  1  0.24414870  0.24481358  0.25102019  1.0
  P  P3355  1  0.24414870  0.38767072  0.25102019  1.0
  P  P3356  1  0.24414870  0.53052787  0.25102019  1.0
  P  P3357  1  0.24414870  0.67338501  0.25102019  1.0
  P  P3358  1  0.24414870  0.81624215  0.25102019  1.0
  P  P3359  1  0.24414870  0.95909930  0.25102019  1.0
  P  P3360  1  0.35525981  0.10195644  0.25102019  1.0
  P  P3361  1  0.35525981  0.24481358  0.25102019  1.0
  P  P3362  1  0.35525981  0.38767072  0.25102019  1.0
  P  P3363  1  0.35525981  0.53052787  0.25102019  1.0
  P  P3364  1  0.35525981  0.67338501  0.25102019  1.0
  P  P3365  1  0.35525981  0.81624215  0.25102019  1.0
  P  P3366  1  0.35525981  0.95909930  0.25102019  1.0
  P  P3367  1  0.46637092  0.10195644  0.25102019  1.0
  P  P3368  1  0.46637092  0.24481358  0.25102019  1.0
  P  P3369  1  0.46637092  0.38767072  0.25102019  1.0
  P  P3370  1  0.46637092  0.53052787  0.25102019  1.0
  P  P3371  1  0.46637092  0.67338501  0.25102019  1.0
  P  P3372  1  0.46637092  0.81624215  0.25102019  1.0
  P  P3373  1  0.46637092  0.95909930  0.25102019  1.0
  P  P3374  1  0.57748203  0.10195644  0.25102019  1.0
  P  P3375  1  0.57748203  0.24481358  0.25102019  1.0
  P  P3376  1  0.57748203  0.38767072  0.25102019  1.0
  P  P3377  1  0.57748203  0.53052787  0.25102019  1.0
  P  P3378  1  0.57748203  0.67338501  0.25102019  1.0
  P  P3379  1  0.57748203  0.81624215  0.25102019  1.0
  P  P3380  1  0.57748203  0.95909930  0.25102019  1.0
  P  P3381  1  0.68859314  0.10195644  0.25102019  1.0
  P  P3382  1  0.68859314  0.24481358  0.25102019  1.0
  P  P3383  1  0.68859314  0.38767072  0.25102019  1.0
  P  P3384  1  0.68859314  0.53052787  0.25102019  1.0
  P  P3385  1  0.68859314  0.67338501  0.25102019  1.0
  P  P3386  1  0.68859314  0.81624215  0.25102019  1.0
  P  P3387  1  0.68859314  0.95909930  0.25102019  1.0
  P  P3388  1  0.79970425  0.10195644  0.25102019  1.0
  P  P3389  1  0.79970425  0.24481358  0.25102019  1.0
  P  P3390  1  0.79970425  0.38767072  0.25102019  1.0
  P  P3391  1  0.79970425  0.53052787  0.25102019  1.0
  P  P3392  1  0.79970425  0.67338501  0.25102019  1.0
  P  P3393  1  0.79970425  0.81624215  0.25102019  1.0
  P  P3394  1  0.79970425  0.95909930  0.25102019  1.0
  P  P3395  1  0.91081536  0.10195644  0.25102019  1.0
  P  P3396  1  0.91081536  0.24481358  0.25102019  1.0
  P  P3397  1  0.91081536  0.38767072  0.25102019  1.0
  P  P3398  1  0.91081536  0.53052787  0.25102019  1.0
  P  P3399  1  0.91081536  0.67338501  0.25102019  1.0
  P  P3400  1  0.91081536  0.81624215  0.25102019  1.0
  P  P3401  1  0.91081536  0.95909930  0.25102019  1.0
  P  P3402  1  0.04309050  0.11556188  0.29863924  1.0
  P  P3403  1  0.04309050  0.25841902  0.29863924  1.0
  P  P3404  1  0.04309050  0.40127617  0.29863924  1.0
  P  P3405  1  0.04309050  0.54413331  0.29863924  1.0
  P  P3406  1  0.04309050  0.68699045  0.29863924  1.0
  P  P3407  1  0.04309050  0.82984760  0.29863924  1.0
  P  P3408  1  0.04309050  0.97270474  0.29863924  1.0
  P  P3409  1  0.15420161  0.11556188  0.29863924  1.0
  P  P3410  1  0.15420161  0.25841902  0.29863924  1.0
  P  P3411  1  0.15420161  0.40127617  0.29863924  1.0
  P  P3412  1  0.15420161  0.54413331  0.29863924  1.0
  P  P3413  1  0.15420161  0.68699045  0.29863924  1.0
  P  P3414  1  0.15420161  0.82984760  0.29863924  1.0
  P  P3415  1  0.15420161  0.97270474  0.29863924  1.0
  P  P3416  1  0.26531272  0.11556188  0.29863924  1.0
  P  P3417  1  0.26531272  0.25841902  0.29863924  1.0
  P  P3418  1  0.26531272  0.40127617  0.29863924  1.0
  P  P3419  1  0.26531272  0.54413331  0.29863924  1.0
  P  P3420  1  0.26531272  0.68699045  0.29863924  1.0
  P  P3421  1  0.26531272  0.82984760  0.29863924  1.0
  P  P3422  1  0.26531272  0.97270474  0.29863924  1.0
  P  P3423  1  0.37642383  0.11556188  0.29863924  1.0
  P  P3424  1  0.37642383  0.25841902  0.29863924  1.0
  P  P3425  1  0.37642383  0.40127617  0.29863924  1.0
  P  P3426  1  0.37642383  0.54413331  0.29863924  1.0
  P  P3427  1  0.37642383  0.68699045  0.29863924  1.0
  P  P3428  1  0.37642383  0.82984760  0.29863924  1.0
  P  P3429  1  0.37642383  0.97270474  0.29863924  1.0
  P  P3430  1  0.48753494  0.11556188  0.29863924  1.0
  P  P3431  1  0.48753494  0.25841902  0.29863924  1.0
  P  P3432  1  0.48753494  0.40127617  0.29863924  1.0
  P  P3433  1  0.48753494  0.54413331  0.29863924  1.0
  P  P3434  1  0.48753494  0.68699045  0.29863924  1.0
  P  P3435  1  0.48753494  0.82984760  0.29863924  1.0
  P  P3436  1  0.48753494  0.97270474  0.29863924  1.0
  P  P3437  1  0.59864605  0.11556188  0.29863924  1.0
  P  P3438  1  0.59864605  0.25841902  0.29863924  1.0
  P  P3439  1  0.59864605  0.40127617  0.29863924  1.0
  P  P3440  1  0.59864605  0.54413331  0.29863924  1.0
  P  P3441  1  0.59864605  0.68699045  0.29863924  1.0
  P  P3442  1  0.59864605  0.82984760  0.29863924  1.0
  P  P3443  1  0.59864605  0.97270474  0.29863924  1.0
  P  P3444  1  0.70975716  0.11556188  0.29863924  1.0
  P  P3445  1  0.70975716  0.25841902  0.29863924  1.0
  P  P3446  1  0.70975716  0.40127617  0.29863924  1.0
  P  P3447  1  0.70975716  0.54413331  0.29863924  1.0
  P  P3448  1  0.70975716  0.68699045  0.29863924  1.0
  P  P3449  1  0.70975716  0.82984760  0.29863924  1.0
  P  P3450  1  0.70975716  0.97270474  0.29863924  1.0
  P  P3451  1  0.82086827  0.11556188  0.29863924  1.0
  P  P3452  1  0.82086827  0.25841902  0.29863924  1.0
  P  P3453  1  0.82086827  0.40127617  0.29863924  1.0
  P  P3454  1  0.82086827  0.54413331  0.29863924  1.0
  P  P3455  1  0.82086827  0.68699045  0.29863924  1.0
  P  P3456  1  0.82086827  0.82984760  0.29863924  1.0
  P  P3457  1  0.82086827  0.97270474  0.29863924  1.0
  P  P3458  1  0.93197938  0.11556188  0.29863924  1.0
  P  P3459  1  0.93197938  0.25841902  0.29863924  1.0
  P  P3460  1  0.93197938  0.40127617  0.29863924  1.0
  P  P3461  1  0.93197938  0.54413331  0.29863924  1.0
  P  P3462  1  0.93197938  0.68699045  0.29863924  1.0
  P  P3463  1  0.93197938  0.82984760  0.29863924  1.0
  P  P3464  1  0.93197938  0.97270474  0.29863924  1.0
  P  P3465  1  0.06425452  0.12916732  0.34625828  1.0
  P  P3466  1  0.06425452  0.27202447  0.34625828  1.0
  P  P3467  1  0.06425452  0.41488161  0.34625828  1.0
  P  P3468  1  0.06425452  0.55773875  0.34625828  1.0
  P  P3469  1  0.06425452  0.70059589  0.34625828  1.0
  P  P3470  1  0.06425452  0.84345304  0.34625828  1.0
  P  P3471  1  0.06425452  0.98631018  0.34625828  1.0
  P  P3472  1  0.17536563  0.12916732  0.34625828  1.0
  P  P3473  1  0.17536563  0.27202447  0.34625828  1.0
  P  P3474  1  0.17536563  0.41488161  0.34625828  1.0
  P  P3475  1  0.17536563  0.55773875  0.34625828  1.0
  P  P3476  1  0.17536563  0.70059589  0.34625828  1.0
  P  P3477  1  0.17536563  0.84345304  0.34625828  1.0
  P  P3478  1  0.17536563  0.98631018  0.34625828  1.0
  P  P3479  1  0.28647674  0.12916732  0.34625828  1.0
  P  P3480  1  0.28647674  0.27202447  0.34625828  1.0
  P  P3481  1  0.28647674  0.41488161  0.34625828  1.0
  P  P3482  1  0.28647674  0.55773875  0.34625828  1.0
  P  P3483  1  0.28647674  0.70059589  0.34625828  1.0
  P  P3484  1  0.28647674  0.84345304  0.34625828  1.0
  P  P3485  1  0.28647674  0.98631018  0.34625828  1.0
  P  P3486  1  0.39758785  0.12916732  0.34625828  1.0
  P  P3487  1  0.39758785  0.27202447  0.34625828  1.0
  P  P3488  1  0.39758785  0.41488161  0.34625828  1.0
  P  P3489  1  0.39758785  0.55773875  0.34625828  1.0
  P  P3490  1  0.39758785  0.70059589  0.34625828  1.0
  P  P3491  1  0.39758785  0.84345304  0.34625828  1.0
  P  P3492  1  0.39758785  0.98631018  0.34625828  1.0
  P  P3493  1  0.50869896  0.12916732  0.34625828  1.0
  P  P3494  1  0.50869896  0.27202447  0.34625828  1.0
  P  P3495  1  0.50869896  0.41488161  0.34625828  1.0
  P  P3496  1  0.50869896  0.55773875  0.34625828  1.0
  P  P3497  1  0.50869896  0.70059589  0.34625828  1.0
  P  P3498  1  0.50869896  0.84345304  0.34625828  1.0
  P  P3499  1  0.50869896  0.98631018  0.34625828  1.0
  P  P3500  1  0.61981007  0.12916732  0.34625828  1.0
  P  P3501  1  0.61981007  0.27202447  0.34625828  1.0
  P  P3502  1  0.61981007  0.41488161  0.34625828  1.0
  P  P3503  1  0.61981007  0.55773875  0.34625828  1.0
  P  P3504  1  0.61981007  0.70059589  0.34625828  1.0
  P  P3505  1  0.61981007  0.84345304  0.34625828  1.0
  P  P3506  1  0.61981007  0.98631018  0.34625828  1.0
  P  P3507  1  0.73092118  0.12916732  0.34625828  1.0
  P  P3508  1  0.73092118  0.27202447  0.34625828  1.0
  P  P3509  1  0.73092118  0.41488161  0.34625828  1.0
  P  P3510  1  0.73092118  0.55773875  0.34625828  1.0
  P  P3511  1  0.73092118  0.70059589  0.34625828  1.0
  P  P3512  1  0.73092118  0.84345304  0.34625828  1.0
  P  P3513  1  0.73092118  0.98631018  0.34625828  1.0
  P  P3514  1  0.84203229  0.12916732  0.34625828  1.0
  P  P3515  1  0.84203229  0.27202447  0.34625828  1.0
  P  P3516  1  0.84203229  0.41488161  0.34625828  1.0
  P  P3517  1  0.84203229  0.55773875  0.34625828  1.0
  P  P3518  1  0.84203229  0.70059589  0.34625828  1.0
  P  P3519  1  0.84203229  0.84345304  0.34625828  1.0
  P  P3520  1  0.84203229  0.98631018  0.34625828  1.0
  P  P3521  1  0.95314341  0.12916732  0.34625828  1.0
  P  P3522  1  0.95314341  0.27202447  0.34625828  1.0
  P  P3523  1  0.95314341  0.41488161  0.34625828  1.0
  P  P3524  1  0.95314341  0.55773875  0.34625828  1.0
  P  P3525  1  0.95314341  0.70059589  0.34625828  1.0
  P  P3526  1  0.95314341  0.84345304  0.34625828  1.0
  P  P3527  1  0.95314341  0.98631018  0.34625828  1.0
  P  P3528  1  0.03165502  0.02519131  0.28100679  1.0
  P  P3529  1  0.03165502  0.16804845  0.28100679  1.0
  P  P3530  1  0.03165502  0.31090559  0.28100679  1.0
  P  P3531  1  0.03165502  0.45376274  0.28100679  1.0
  P  P3532  1  0.03165502  0.59661988  0.28100679  1.0
  P  P3533  1  0.03165502  0.73947702  0.28100679  1.0
  P  P3534  1  0.03165502  0.88233416  0.28100679  1.0
  P  P3535  1  0.14276614  0.02519131  0.28100679  1.0
  P  P3536  1  0.14276614  0.16804845  0.28100679  1.0
  P  P3537  1  0.14276614  0.31090559  0.28100679  1.0
  P  P3538  1  0.14276614  0.45376274  0.28100679  1.0
  P  P3539  1  0.14276614  0.59661988  0.28100679  1.0
  P  P3540  1  0.14276614  0.73947702  0.28100679  1.0
  P  P3541  1  0.14276614  0.88233416  0.28100679  1.0
  P  P3542  1  0.25387725  0.02519131  0.28100679  1.0
  P  P3543  1  0.25387725  0.16804845  0.28100679  1.0
  P  P3544  1  0.25387725  0.31090559  0.28100679  1.0
  P  P3545  1  0.25387725  0.45376274  0.28100679  1.0
  P  P3546  1  0.25387725  0.59661988  0.28100679  1.0
  P  P3547  1  0.25387725  0.73947702  0.28100679  1.0
  P  P3548  1  0.25387725  0.88233416  0.28100679  1.0
  P  P3549  1  0.36498836  0.02519131  0.28100679  1.0
  P  P3550  1  0.36498836  0.16804845  0.28100679  1.0
  P  P3551  1  0.36498836  0.31090559  0.28100679  1.0
  P  P3552  1  0.36498836  0.45376274  0.28100679  1.0
  P  P3553  1  0.36498836  0.59661988  0.28100679  1.0
  P  P3554  1  0.36498836  0.73947702  0.28100679  1.0
  P  P3555  1  0.36498836  0.88233416  0.28100679  1.0
  P  P3556  1  0.47609947  0.02519131  0.28100679  1.0
  P  P3557  1  0.47609947  0.16804845  0.28100679  1.0
  P  P3558  1  0.47609947  0.31090559  0.28100679  1.0
  P  P3559  1  0.47609947  0.45376274  0.28100679  1.0
  P  P3560  1  0.47609947  0.59661988  0.28100679  1.0
  P  P3561  1  0.47609947  0.73947702  0.28100679  1.0
  P  P3562  1  0.47609947  0.88233416  0.28100679  1.0
  P  P3563  1  0.58721058  0.02519131  0.28100679  1.0
  P  P3564  1  0.58721058  0.16804845  0.28100679  1.0
  P  P3565  1  0.58721058  0.31090559  0.28100679  1.0
  P  P3566  1  0.58721058  0.45376274  0.28100679  1.0
  P  P3567  1  0.58721058  0.59661988  0.28100679  1.0
  P  P3568  1  0.58721058  0.73947702  0.28100679  1.0
  P  P3569  1  0.58721058  0.88233416  0.28100679  1.0
  P  P3570  1  0.69832169  0.02519131  0.28100679  1.0
  P  P3571  1  0.69832169  0.16804845  0.28100679  1.0
  P  P3572  1  0.69832169  0.31090559  0.28100679  1.0
  P  P3573  1  0.69832169  0.45376274  0.28100679  1.0
  P  P3574  1  0.69832169  0.59661988  0.28100679  1.0
  P  P3575  1  0.69832169  0.73947702  0.28100679  1.0
  P  P3576  1  0.69832169  0.88233416  0.28100679  1.0
  P  P3577  1  0.80943280  0.02519131  0.28100679  1.0
  P  P3578  1  0.80943280  0.16804845  0.28100679  1.0
  P  P3579  1  0.80943280  0.31090559  0.28100679  1.0
  P  P3580  1  0.80943280  0.45376274  0.28100679  1.0
  P  P3581  1  0.80943280  0.59661988  0.28100679  1.0
  P  P3582  1  0.80943280  0.73947702  0.28100679  1.0
  P  P3583  1  0.80943280  0.88233416  0.28100679  1.0
  P  P3584  1  0.92054391  0.02519131  0.28100679  1.0
  P  P3585  1  0.92054391  0.16804845  0.28100679  1.0
  P  P3586  1  0.92054391  0.31090559  0.28100679  1.0
  P  P3587  1  0.92054391  0.45376274  0.28100679  1.0
  P  P3588  1  0.92054391  0.59661988  0.28100679  1.0
  P  P3589  1  0.92054391  0.73947702  0.28100679  1.0
  P  P3590  1  0.92054391  0.88233416  0.28100679  1.0
  P  P3591  1  0.05281905  0.03879675  0.32862583  1.0
  P  P3592  1  0.05281905  0.18165389  0.32862583  1.0
  P  P3593  1  0.05281905  0.32451103  0.32862583  1.0
  P  P3594  1  0.05281905  0.46736818  0.32862583  1.0
  P  P3595  1  0.05281905  0.61022532  0.32862583  1.0
  P  P3596  1  0.05281905  0.75308246  0.32862583  1.0
  P  P3597  1  0.05281905  0.89593961  0.32862583  1.0
  P  P3598  1  0.16393016  0.03879675  0.32862583  1.0
  P  P3599  1  0.16393016  0.18165389  0.32862583  1.0
  P  P3600  1  0.16393016  0.32451103  0.32862583  1.0
  P  P3601  1  0.16393016  0.46736818  0.32862583  1.0
  P  P3602  1  0.16393016  0.61022532  0.32862583  1.0
  P  P3603  1  0.16393016  0.75308246  0.32862583  1.0
  P  P3604  1  0.16393016  0.89593961  0.32862583  1.0
  P  P3605  1  0.27504127  0.03879675  0.32862583  1.0
  P  P3606  1  0.27504127  0.18165389  0.32862583  1.0
  P  P3607  1  0.27504127  0.32451103  0.32862583  1.0
  P  P3608  1  0.27504127  0.46736818  0.32862583  1.0
  P  P3609  1  0.27504127  0.61022532  0.32862583  1.0
  P  P3610  1  0.27504127  0.75308246  0.32862583  1.0
  P  P3611  1  0.27504127  0.89593961  0.32862583  1.0
  P  P3612  1  0.38615238  0.03879675  0.32862583  1.0
  P  P3613  1  0.38615238  0.18165389  0.32862583  1.0
  P  P3614  1  0.38615238  0.32451103  0.32862583  1.0
  P  P3615  1  0.38615238  0.46736818  0.32862583  1.0
  P  P3616  1  0.38615238  0.61022532  0.32862583  1.0
  P  P3617  1  0.38615238  0.75308246  0.32862583  1.0
  P  P3618  1  0.38615238  0.89593961  0.32862583  1.0
  P  P3619  1  0.49726349  0.03879675  0.32862583  1.0
  P  P3620  1  0.49726349  0.18165389  0.32862583  1.0
  P  P3621  1  0.49726349  0.32451103  0.32862583  1.0
  P  P3622  1  0.49726349  0.46736818  0.32862583  1.0
  P  P3623  1  0.49726349  0.61022532  0.32862583  1.0
  P  P3624  1  0.49726349  0.75308246  0.32862583  1.0
  P  P3625  1  0.49726349  0.89593961  0.32862583  1.0
  P  P3626  1  0.60837460  0.03879675  0.32862583  1.0
  P  P3627  1  0.60837460  0.18165389  0.32862583  1.0
  P  P3628  1  0.60837460  0.32451103  0.32862583  1.0
  P  P3629  1  0.60837460  0.46736818  0.32862583  1.0
  P  P3630  1  0.60837460  0.61022532  0.32862583  1.0
  P  P3631  1  0.60837460  0.75308246  0.32862583  1.0
  P  P3632  1  0.60837460  0.89593961  0.32862583  1.0
  P  P3633  1  0.71948571  0.03879675  0.32862583  1.0
  P  P3634  1  0.71948571  0.18165389  0.32862583  1.0
  P  P3635  1  0.71948571  0.32451103  0.32862583  1.0
  P  P3636  1  0.71948571  0.46736818  0.32862583  1.0
  P  P3637  1  0.71948571  0.61022532  0.32862583  1.0
  P  P3638  1  0.71948571  0.75308246  0.32862583  1.0
  P  P3639  1  0.71948571  0.89593961  0.32862583  1.0
  P  P3640  1  0.83059682  0.03879675  0.32862583  1.0
  P  P3641  1  0.83059682  0.18165389  0.32862583  1.0
  P  P3642  1  0.83059682  0.32451103  0.32862583  1.0
  P  P3643  1  0.83059682  0.46736818  0.32862583  1.0
  P  P3644  1  0.83059682  0.61022532  0.32862583  1.0
  P  P3645  1  0.83059682  0.75308246  0.32862583  1.0
  P  P3646  1  0.83059682  0.89593961  0.32862583  1.0
  P  P3647  1  0.94170793  0.03879675  0.32862583  1.0
  P  P3648  1  0.94170793  0.18165389  0.32862583  1.0
  P  P3649  1  0.94170793  0.32451103  0.32862583  1.0
  P  P3650  1  0.94170793  0.46736818  0.32862583  1.0
  P  P3651  1  0.94170793  0.61022532  0.32862583  1.0
  P  P3652  1  0.94170793  0.75308246  0.32862583  1.0
  P  P3653  1  0.94170793  0.89593961  0.32862583  1.0
  P  P3654  1  0.01049100  0.01158586  0.23338774  1.0
  P  P3655  1  0.01049100  0.15444301  0.23338774  1.0
  P  P3656  1  0.01049100  0.29730015  0.23338774  1.0
  P  P3657  1  0.01049100  0.44015729  0.23338774  1.0
  P  P3658  1  0.01049100  0.58301444  0.23338774  1.0
  P  P3659  1  0.01049100  0.72587158  0.23338774  1.0
  P  P3660  1  0.01049100  0.86872872  0.23338774  1.0
  P  P3661  1  0.12160211  0.01158586  0.23338774  1.0
  P  P3662  1  0.12160211  0.15444301  0.23338774  1.0
  P  P3663  1  0.12160211  0.29730015  0.23338774  1.0
  P  P3664  1  0.12160211  0.44015729  0.23338774  1.0
  P  P3665  1  0.12160211  0.58301444  0.23338774  1.0
  P  P3666  1  0.12160211  0.72587158  0.23338774  1.0
  P  P3667  1  0.12160211  0.86872872  0.23338774  1.0
  P  P3668  1  0.23271323  0.01158586  0.23338774  1.0
  P  P3669  1  0.23271323  0.15444301  0.23338774  1.0
  P  P3670  1  0.23271323  0.29730015  0.23338774  1.0
  P  P3671  1  0.23271323  0.44015729  0.23338774  1.0
  P  P3672  1  0.23271323  0.58301444  0.23338774  1.0
  P  P3673  1  0.23271323  0.72587158  0.23338774  1.0
  P  P3674  1  0.23271323  0.86872872  0.23338774  1.0
  P  P3675  1  0.34382434  0.01158586  0.23338774  1.0
  P  P3676  1  0.34382434  0.15444301  0.23338774  1.0
  P  P3677  1  0.34382434  0.29730015  0.23338774  1.0
  P  P3678  1  0.34382434  0.44015729  0.23338774  1.0
  P  P3679  1  0.34382434  0.58301444  0.23338774  1.0
  P  P3680  1  0.34382434  0.72587158  0.23338774  1.0
  P  P3681  1  0.34382434  0.86872872  0.23338774  1.0
  P  P3682  1  0.45493545  0.01158586  0.23338774  1.0
  P  P3683  1  0.45493545  0.15444301  0.23338774  1.0
  P  P3684  1  0.45493545  0.29730015  0.23338774  1.0
  P  P3685  1  0.45493545  0.44015729  0.23338774  1.0
  P  P3686  1  0.45493545  0.58301444  0.23338774  1.0
  P  P3687  1  0.45493545  0.72587158  0.23338774  1.0
  P  P3688  1  0.45493545  0.86872872  0.23338774  1.0
  P  P3689  1  0.56604656  0.01158586  0.23338774  1.0
  P  P3690  1  0.56604656  0.15444301  0.23338774  1.0
  P  P3691  1  0.56604656  0.29730015  0.23338774  1.0
  P  P3692  1  0.56604656  0.44015729  0.23338774  1.0
  P  P3693  1  0.56604656  0.58301444  0.23338774  1.0
  P  P3694  1  0.56604656  0.72587158  0.23338774  1.0
  P  P3695  1  0.56604656  0.86872872  0.23338774  1.0
  P  P3696  1  0.67715767  0.01158586  0.23338774  1.0
  P  P3697  1  0.67715767  0.15444301  0.23338774  1.0
  P  P3698  1  0.67715767  0.29730015  0.23338774  1.0
  P  P3699  1  0.67715767  0.44015729  0.23338774  1.0
  P  P3700  1  0.67715767  0.58301444  0.23338774  1.0
  P  P3701  1  0.67715767  0.72587158  0.23338774  1.0
  P  P3702  1  0.67715767  0.86872872  0.23338774  1.0
  P  P3703  1  0.78826878  0.01158586  0.23338774  1.0
  P  P3704  1  0.78826878  0.15444301  0.23338774  1.0
  P  P3705  1  0.78826878  0.29730015  0.23338774  1.0
  P  P3706  1  0.78826878  0.44015729  0.23338774  1.0
  P  P3707  1  0.78826878  0.58301444  0.23338774  1.0
  P  P3708  1  0.78826878  0.72587158  0.23338774  1.0
  P  P3709  1  0.78826878  0.86872872  0.23338774  1.0
  P  P3710  1  0.89937989  0.01158586  0.23338774  1.0
  P  P3711  1  0.89937989  0.15444301  0.23338774  1.0
  P  P3712  1  0.89937989  0.29730015  0.23338774  1.0
  P  P3713  1  0.89937989  0.44015729  0.23338774  1.0
  P  P3714  1  0.89937989  0.58301444  0.23338774  1.0
  P  P3715  1  0.89937989  0.72587158  0.23338774  1.0
  P  P3716  1  0.89937989  0.86872872  0.23338774  1.0
  P  P3717  1  0.04438791  0.00486713  0.24951834  1.0
  P  P3718  1  0.04438791  0.14772427  0.24951834  1.0
  P  P3719  1  0.04438791  0.29058142  0.24951834  1.0
  P  P3720  1  0.04438791  0.43343856  0.24951834  1.0
  P  P3721  1  0.04438791  0.57629570  0.24951834  1.0
  P  P3722  1  0.04438791  0.71915284  0.24951834  1.0
  P  P3723  1  0.04438791  0.86200999  0.24951834  1.0
  P  P3724  1  0.15549902  0.00486713  0.24951834  1.0
  P  P3725  1  0.15549902  0.14772427  0.24951834  1.0
  P  P3726  1  0.15549902  0.29058142  0.24951834  1.0
  P  P3727  1  0.15549902  0.43343856  0.24951834  1.0
  P  P3728  1  0.15549902  0.57629570  0.24951834  1.0
  P  P3729  1  0.15549902  0.71915284  0.24951834  1.0
  P  P3730  1  0.15549902  0.86200999  0.24951834  1.0
  P  P3731  1  0.26661013  0.00486713  0.24951834  1.0
  P  P3732  1  0.26661013  0.14772427  0.24951834  1.0
  P  P3733  1  0.26661013  0.29058142  0.24951834  1.0
  P  P3734  1  0.26661013  0.43343856  0.24951834  1.0
  P  P3735  1  0.26661013  0.57629570  0.24951834  1.0
  P  P3736  1  0.26661013  0.71915284  0.24951834  1.0
  P  P3737  1  0.26661013  0.86200999  0.24951834  1.0
  P  P3738  1  0.37772124  0.00486713  0.24951834  1.0
  P  P3739  1  0.37772124  0.14772427  0.24951834  1.0
  P  P3740  1  0.37772124  0.29058142  0.24951834  1.0
  P  P3741  1  0.37772124  0.43343856  0.24951834  1.0
  P  P3742  1  0.37772124  0.57629570  0.24951834  1.0
  P  P3743  1  0.37772124  0.71915284  0.24951834  1.0
  P  P3744  1  0.37772124  0.86200999  0.24951834  1.0
  P  P3745  1  0.48883236  0.00486713  0.24951834  1.0
  P  P3746  1  0.48883236  0.14772427  0.24951834  1.0
  P  P3747  1  0.48883236  0.29058142  0.24951834  1.0
  P  P3748  1  0.48883236  0.43343856  0.24951834  1.0
  P  P3749  1  0.48883236  0.57629570  0.24951834  1.0
  P  P3750  1  0.48883236  0.71915284  0.24951834  1.0
  P  P3751  1  0.48883236  0.86200999  0.24951834  1.0
  P  P3752  1  0.59994347  0.00486713  0.24951834  1.0
  P  P3753  1  0.59994347  0.14772427  0.24951834  1.0
  P  P3754  1  0.59994347  0.29058142  0.24951834  1.0
  P  P3755  1  0.59994347  0.43343856  0.24951834  1.0
  P  P3756  1  0.59994347  0.57629570  0.24951834  1.0
  P  P3757  1  0.59994347  0.71915284  0.24951834  1.0
  P  P3758  1  0.59994347  0.86200999  0.24951834  1.0
  P  P3759  1  0.71105458  0.00486713  0.24951834  1.0
  P  P3760  1  0.71105458  0.14772427  0.24951834  1.0
  P  P3761  1  0.71105458  0.29058142  0.24951834  1.0
  P  P3762  1  0.71105458  0.43343856  0.24951834  1.0
  P  P3763  1  0.71105458  0.57629570  0.24951834  1.0
  P  P3764  1  0.71105458  0.71915284  0.24951834  1.0
  P  P3765  1  0.71105458  0.86200999  0.24951834  1.0
  P  P3766  1  0.82216569  0.00486713  0.24951834  1.0
  P  P3767  1  0.82216569  0.14772427  0.24951834  1.0
  P  P3768  1  0.82216569  0.29058142  0.24951834  1.0
  P  P3769  1  0.82216569  0.43343856  0.24951834  1.0
  P  P3770  1  0.82216569  0.57629570  0.24951834  1.0
  P  P3771  1  0.82216569  0.71915284  0.24951834  1.0
  P  P3772  1  0.82216569  0.86200999  0.24951834  1.0
  P  P3773  1  0.93327680  0.00486713  0.24951834  1.0
  P  P3774  1  0.93327680  0.14772427  0.24951834  1.0
  P  P3775  1  0.93327680  0.29058142  0.24951834  1.0
  P  P3776  1  0.93327680  0.43343856  0.24951834  1.0
  P  P3777  1  0.93327680  0.57629570  0.24951834  1.0
  P  P3778  1  0.93327680  0.71915284  0.24951834  1.0
  P  P3779  1  0.93327680  0.86200999  0.24951834  1.0
  P  P3780  1  0.06555193  0.01847257  0.29713739  1.0
  P  P3781  1  0.06555193  0.16132971  0.29713739  1.0
  P  P3782  1  0.06555193  0.30418686  0.29713739  1.0
  P  P3783  1  0.06555193  0.44704400  0.29713739  1.0
  P  P3784  1  0.06555193  0.58990114  0.29713739  1.0
  P  P3785  1  0.06555193  0.73275829  0.29713739  1.0
  P  P3786  1  0.06555193  0.87561543  0.29713739  1.0
  P  P3787  1  0.17666304  0.01847257  0.29713739  1.0
  P  P3788  1  0.17666304  0.16132971  0.29713739  1.0
  P  P3789  1  0.17666304  0.30418686  0.29713739  1.0
  P  P3790  1  0.17666304  0.44704400  0.29713739  1.0
  P  P3791  1  0.17666304  0.58990114  0.29713739  1.0
  P  P3792  1  0.17666304  0.73275829  0.29713739  1.0
  P  P3793  1  0.17666304  0.87561543  0.29713739  1.0
  P  P3794  1  0.28777415  0.01847257  0.29713739  1.0
  P  P3795  1  0.28777415  0.16132971  0.29713739  1.0
  P  P3796  1  0.28777415  0.30418686  0.29713739  1.0
  P  P3797  1  0.28777415  0.44704400  0.29713739  1.0
  P  P3798  1  0.28777415  0.58990114  0.29713739  1.0
  P  P3799  1  0.28777415  0.73275829  0.29713739  1.0
  P  P3800  1  0.28777415  0.87561543  0.29713739  1.0
  P  P3801  1  0.39888527  0.01847257  0.29713739  1.0
  P  P3802  1  0.39888527  0.16132971  0.29713739  1.0
  P  P3803  1  0.39888527  0.30418686  0.29713739  1.0
  P  P3804  1  0.39888527  0.44704400  0.29713739  1.0
  P  P3805  1  0.39888527  0.58990114  0.29713739  1.0
  P  P3806  1  0.39888527  0.73275829  0.29713739  1.0
  P  P3807  1  0.39888527  0.87561543  0.29713739  1.0
  P  P3808  1  0.50999638  0.01847257  0.29713739  1.0
  P  P3809  1  0.50999638  0.16132971  0.29713739  1.0
  P  P3810  1  0.50999638  0.30418686  0.29713739  1.0
  P  P3811  1  0.50999638  0.44704400  0.29713739  1.0
  P  P3812  1  0.50999638  0.58990114  0.29713739  1.0
  P  P3813  1  0.50999638  0.73275829  0.29713739  1.0
  P  P3814  1  0.50999638  0.87561543  0.29713739  1.0
  P  P3815  1  0.62110749  0.01847257  0.29713739  1.0
  P  P3816  1  0.62110749  0.16132971  0.29713739  1.0
  P  P3817  1  0.62110749  0.30418686  0.29713739  1.0
  P  P3818  1  0.62110749  0.44704400  0.29713739  1.0
  P  P3819  1  0.62110749  0.58990114  0.29713739  1.0
  P  P3820  1  0.62110749  0.73275829  0.29713739  1.0
  P  P3821  1  0.62110749  0.87561543  0.29713739  1.0
  P  P3822  1  0.73221860  0.01847257  0.29713739  1.0
  P  P3823  1  0.73221860  0.16132971  0.29713739  1.0
  P  P3824  1  0.73221860  0.30418686  0.29713739  1.0
  P  P3825  1  0.73221860  0.44704400  0.29713739  1.0
  P  P3826  1  0.73221860  0.58990114  0.29713739  1.0
  P  P3827  1  0.73221860  0.73275829  0.29713739  1.0
  P  P3828  1  0.73221860  0.87561543  0.29713739  1.0
  P  P3829  1  0.84332971  0.01847257  0.29713739  1.0
  P  P3830  1  0.84332971  0.16132971  0.29713739  1.0
  P  P3831  1  0.84332971  0.30418686  0.29713739  1.0
  P  P3832  1  0.84332971  0.44704400  0.29713739  1.0
  P  P3833  1  0.84332971  0.58990114  0.29713739  1.0
  P  P3834  1  0.84332971  0.73275829  0.29713739  1.0
  P  P3835  1  0.84332971  0.87561543  0.29713739  1.0
  P  P3836  1  0.95444082  0.01847257  0.29713739  1.0
  P  P3837  1  0.95444082  0.16132971  0.29713739  1.0
  P  P3838  1  0.95444082  0.30418686  0.29713739  1.0
  P  P3839  1  0.95444082  0.44704400  0.29713739  1.0
  P  P3840  1  0.95444082  0.58990114  0.29713739  1.0
  P  P3841  1  0.95444082  0.73275829  0.29713739  1.0
  P  P3842  1  0.95444082  0.87561543  0.29713739  1.0
  P  P3843  1  0.08671595  0.03207801  0.34475643  1.0
  P  P3844  1  0.08671595  0.17493516  0.34475643  1.0
  P  P3845  1  0.08671595  0.31779230  0.34475643  1.0
  P  P3846  1  0.08671595  0.46064944  0.34475643  1.0
  P  P3847  1  0.08671595  0.60350659  0.34475643  1.0
  P  P3848  1  0.08671595  0.74636373  0.34475643  1.0
  P  P3849  1  0.08671595  0.88922087  0.34475643  1.0
  P  P3850  1  0.19782706  0.03207801  0.34475643  1.0
  P  P3851  1  0.19782706  0.17493516  0.34475643  1.0
  P  P3852  1  0.19782706  0.31779230  0.34475643  1.0
  P  P3853  1  0.19782706  0.46064944  0.34475643  1.0
  P  P3854  1  0.19782706  0.60350659  0.34475643  1.0
  P  P3855  1  0.19782706  0.74636373  0.34475643  1.0
  P  P3856  1  0.19782706  0.88922087  0.34475643  1.0
  P  P3857  1  0.30893818  0.03207801  0.34475643  1.0
  P  P3858  1  0.30893818  0.17493516  0.34475643  1.0
  P  P3859  1  0.30893818  0.31779230  0.34475643  1.0
  P  P3860  1  0.30893818  0.46064944  0.34475643  1.0
  P  P3861  1  0.30893818  0.60350659  0.34475643  1.0
  P  P3862  1  0.30893818  0.74636373  0.34475643  1.0
  P  P3863  1  0.30893818  0.88922087  0.34475643  1.0
  P  P3864  1  0.42004929  0.03207801  0.34475643  1.0
  P  P3865  1  0.42004929  0.17493516  0.34475643  1.0
  P  P3866  1  0.42004929  0.31779230  0.34475643  1.0
  P  P3867  1  0.42004929  0.46064944  0.34475643  1.0
  P  P3868  1  0.42004929  0.60350659  0.34475643  1.0
  P  P3869  1  0.42004929  0.74636373  0.34475643  1.0
  P  P3870  1  0.42004929  0.88922087  0.34475643  1.0
  P  P3871  1  0.53116040  0.03207801  0.34475643  1.0
  P  P3872  1  0.53116040  0.17493516  0.34475643  1.0
  P  P3873  1  0.53116040  0.31779230  0.34475643  1.0
  P  P3874  1  0.53116040  0.46064944  0.34475643  1.0
  P  P3875  1  0.53116040  0.60350659  0.34475643  1.0
  P  P3876  1  0.53116040  0.74636373  0.34475643  1.0
  P  P3877  1  0.53116040  0.88922087  0.34475643  1.0
  P  P3878  1  0.64227151  0.03207801  0.34475643  1.0
  P  P3879  1  0.64227151  0.17493516  0.34475643  1.0
  P  P3880  1  0.64227151  0.31779230  0.34475643  1.0
  P  P3881  1  0.64227151  0.46064944  0.34475643  1.0
  P  P3882  1  0.64227151  0.60350659  0.34475643  1.0
  P  P3883  1  0.64227151  0.74636373  0.34475643  1.0
  P  P3884  1  0.64227151  0.88922087  0.34475643  1.0
  P  P3885  1  0.75338262  0.03207801  0.34475643  1.0
  P  P3886  1  0.75338262  0.17493516  0.34475643  1.0
  P  P3887  1  0.75338262  0.31779230  0.34475643  1.0
  P  P3888  1  0.75338262  0.46064944  0.34475643  1.0
  P  P3889  1  0.75338262  0.60350659  0.34475643  1.0
  P  P3890  1  0.75338262  0.74636373  0.34475643  1.0
  P  P3891  1  0.75338262  0.88922087  0.34475643  1.0
  P  P3892  1  0.86449373  0.03207801  0.34475643  1.0
  P  P3893  1  0.86449373  0.17493516  0.34475643  1.0
  P  P3894  1  0.86449373  0.31779230  0.34475643  1.0
  P  P3895  1  0.86449373  0.46064944  0.34475643  1.0
  P  P3896  1  0.86449373  0.60350659  0.34475643  1.0
  P  P3897  1  0.86449373  0.74636373  0.34475643  1.0
  P  P3898  1  0.86449373  0.88922087  0.34475643  1.0
  P  P3899  1  0.97560484  0.03207801  0.34475643  1.0
  P  P3900  1  0.97560484  0.17493516  0.34475643  1.0
  P  P3901  1  0.97560484  0.31779230  0.34475643  1.0
  P  P3902  1  0.97560484  0.46064944  0.34475643  1.0
  P  P3903  1  0.97560484  0.60350659  0.34475643  1.0
  P  P3904  1  0.97560484  0.74636373  0.34475643  1.0
  P  P3905  1  0.97560484  0.88922087  0.34475643  1.0
  P  P3906  1  0.08888872  0.08637121  0.28478261  1.0
  P  P3907  1  0.08888872  0.22922835  0.28478261  1.0
  P  P3908  1  0.08888872  0.37208549  0.28478261  1.0
  P  P3909  1  0.08888872  0.51494264  0.28478261  1.0
  P  P3910  1  0.08888872  0.65779978  0.28478261  1.0
  P  P3911  1  0.08888872  0.80065692  0.28478261  1.0
  P  P3912  1  0.08888872  0.94351407  0.28478261  1.0
  P  P3913  1  0.19999984  0.08637121  0.28478261  1.0
  P  P3914  1  0.19999984  0.22922835  0.28478261  1.0
  P  P3915  1  0.19999984  0.37208549  0.28478261  1.0
  P  P3916  1  0.19999984  0.51494264  0.28478261  1.0
  P  P3917  1  0.19999984  0.65779978  0.28478261  1.0
  P  P3918  1  0.19999984  0.80065692  0.28478261  1.0
  P  P3919  1  0.19999984  0.94351407  0.28478261  1.0
  P  P3920  1  0.31111095  0.08637121  0.28478261  1.0
  P  P3921  1  0.31111095  0.22922835  0.28478261  1.0
  P  P3922  1  0.31111095  0.37208549  0.28478261  1.0
  P  P3923  1  0.31111095  0.51494264  0.28478261  1.0
  P  P3924  1  0.31111095  0.65779978  0.28478261  1.0
  P  P3925  1  0.31111095  0.80065692  0.28478261  1.0
  P  P3926  1  0.31111095  0.94351407  0.28478261  1.0
  P  P3927  1  0.42222206  0.08637121  0.28478261  1.0
  P  P3928  1  0.42222206  0.22922835  0.28478261  1.0
  P  P3929  1  0.42222206  0.37208549  0.28478261  1.0
  P  P3930  1  0.42222206  0.51494264  0.28478261  1.0
  P  P3931  1  0.42222206  0.65779978  0.28478261  1.0
  P  P3932  1  0.42222206  0.80065692  0.28478261  1.0
  P  P3933  1  0.42222206  0.94351407  0.28478261  1.0
  P  P3934  1  0.53333317  0.08637121  0.28478261  1.0
  P  P3935  1  0.53333317  0.22922835  0.28478261  1.0
  P  P3936  1  0.53333317  0.37208549  0.28478261  1.0
  P  P3937  1  0.53333317  0.51494264  0.28478261  1.0
  P  P3938  1  0.53333317  0.65779978  0.28478261  1.0
  P  P3939  1  0.53333317  0.80065692  0.28478261  1.0
  P  P3940  1  0.53333317  0.94351407  0.28478261  1.0
  P  P3941  1  0.64444428  0.08637121  0.28478261  1.0
  P  P3942  1  0.64444428  0.22922835  0.28478261  1.0
  P  P3943  1  0.64444428  0.37208549  0.28478261  1.0
  P  P3944  1  0.64444428  0.51494264  0.28478261  1.0
  P  P3945  1  0.64444428  0.65779978  0.28478261  1.0
  P  P3946  1  0.64444428  0.80065692  0.28478261  1.0
  P  P3947  1  0.64444428  0.94351407  0.28478261  1.0
  P  P3948  1  0.75555539  0.08637121  0.28478261  1.0
  P  P3949  1  0.75555539  0.22922835  0.28478261  1.0
  P  P3950  1  0.75555539  0.37208549  0.28478261  1.0
  P  P3951  1  0.75555539  0.51494264  0.28478261  1.0
  P  P3952  1  0.75555539  0.65779978  0.28478261  1.0
  P  P3953  1  0.75555539  0.80065692  0.28478261  1.0
  P  P3954  1  0.75555539  0.94351407  0.28478261  1.0
  P  P3955  1  0.86666650  0.08637121  0.28478261  1.0
  P  P3956  1  0.86666650  0.22922835  0.28478261  1.0
  P  P3957  1  0.86666650  0.37208549  0.28478261  1.0
  P  P3958  1  0.86666650  0.51494264  0.28478261  1.0
  P  P3959  1  0.86666650  0.65779978  0.28478261  1.0
  P  P3960  1  0.86666650  0.80065692  0.28478261  1.0
  P  P3961  1  0.86666650  0.94351407  0.28478261  1.0
  P  P3962  1  0.97777761  0.08637121  0.28478261  1.0
  P  P3963  1  0.97777761  0.22922835  0.28478261  1.0
  P  P3964  1  0.97777761  0.37208549  0.28478261  1.0
  P  P3965  1  0.97777761  0.51494264  0.28478261  1.0
  P  P3966  1  0.97777761  0.65779978  0.28478261  1.0
  P  P3967  1  0.97777761  0.80065692  0.28478261  1.0
  P  P3968  1  0.97777761  0.94351407  0.28478261  1.0
  P  P3969  1  0.11005275  0.09997665  0.33240166  1.0
  P  P3970  1  0.11005275  0.24283379  0.33240166  1.0
  P  P3971  1  0.11005275  0.38569094  0.33240166  1.0
  P  P3972  1  0.11005275  0.52854808  0.33240166  1.0
  P  P3973  1  0.11005275  0.67140522  0.33240166  1.0
  P  P3974  1  0.11005275  0.81426236  0.33240166  1.0
  P  P3975  1  0.11005275  0.95711951  0.33240166  1.0
  P  P3976  1  0.22116386  0.09997665  0.33240166  1.0
  P  P3977  1  0.22116386  0.24283379  0.33240166  1.0
  P  P3978  1  0.22116386  0.38569094  0.33240166  1.0
  P  P3979  1  0.22116386  0.52854808  0.33240166  1.0
  P  P3980  1  0.22116386  0.67140522  0.33240166  1.0
  P  P3981  1  0.22116386  0.81426236  0.33240166  1.0
  P  P3982  1  0.22116386  0.95711951  0.33240166  1.0
  P  P3983  1  0.33227497  0.09997665  0.33240166  1.0
  P  P3984  1  0.33227497  0.24283379  0.33240166  1.0
  P  P3985  1  0.33227497  0.38569094  0.33240166  1.0
  P  P3986  1  0.33227497  0.52854808  0.33240166  1.0
  P  P3987  1  0.33227497  0.67140522  0.33240166  1.0
  P  P3988  1  0.33227497  0.81426236  0.33240166  1.0
  P  P3989  1  0.33227497  0.95711951  0.33240166  1.0
  P  P3990  1  0.44338608  0.09997665  0.33240166  1.0
  P  P3991  1  0.44338608  0.24283379  0.33240166  1.0
  P  P3992  1  0.44338608  0.38569094  0.33240166  1.0
  P  P3993  1  0.44338608  0.52854808  0.33240166  1.0
  P  P3994  1  0.44338608  0.67140522  0.33240166  1.0
  P  P3995  1  0.44338608  0.81426236  0.33240166  1.0
  P  P3996  1  0.44338608  0.95711951  0.33240166  1.0
  P  P3997  1  0.55449719  0.09997665  0.33240166  1.0
  P  P3998  1  0.55449719  0.24283379  0.33240166  1.0
  P  P3999  1  0.55449719  0.38569094  0.33240166  1.0
  P  P4000  1  0.55449719  0.52854808  0.33240166  1.0
  P  P4001  1  0.55449719  0.67140522  0.33240166  1.0
  P  P4002  1  0.55449719  0.81426236  0.33240166  1.0
  P  P4003  1  0.55449719  0.95711951  0.33240166  1.0
  P  P4004  1  0.66560830  0.09997665  0.33240166  1.0
  P  P4005  1  0.66560830  0.24283379  0.33240166  1.0
  P  P4006  1  0.66560830  0.38569094  0.33240166  1.0
  P  P4007  1  0.66560830  0.52854808  0.33240166  1.0
  P  P4008  1  0.66560830  0.67140522  0.33240166  1.0
  P  P4009  1  0.66560830  0.81426236  0.33240166  1.0
  P  P4010  1  0.66560830  0.95711951  0.33240166  1.0
  P  P4011  1  0.77671941  0.09997665  0.33240166  1.0
  P  P4012  1  0.77671941  0.24283379  0.33240166  1.0
  P  P4013  1  0.77671941  0.38569094  0.33240166  1.0
  P  P4014  1  0.77671941  0.52854808  0.33240166  1.0
  P  P4015  1  0.77671941  0.67140522  0.33240166  1.0
  P  P4016  1  0.77671941  0.81426236  0.33240166  1.0
  P  P4017  1  0.77671941  0.95711951  0.33240166  1.0
  P  P4018  1  0.88783052  0.09997665  0.33240166  1.0
  P  P4019  1  0.88783052  0.24283379  0.33240166  1.0
  P  P4020  1  0.88783052  0.38569094  0.33240166  1.0
  P  P4021  1  0.88783052  0.52854808  0.33240166  1.0
  P  P4022  1  0.88783052  0.67140522  0.33240166  1.0
  P  P4023  1  0.88783052  0.81426236  0.33240166  1.0
  P  P4024  1  0.88783052  0.95711951  0.33240166  1.0
  P  P4025  1  0.99894163  0.09997665  0.33240166  1.0
  P  P4026  1  0.99894163  0.24283379  0.33240166  1.0
  P  P4027  1  0.99894163  0.38569094  0.33240166  1.0
  P  P4028  1  0.99894163  0.52854808  0.33240166  1.0
  P  P4029  1  0.99894163  0.67140522  0.33240166  1.0
  P  P4030  1  0.99894163  0.81426236  0.33240166  1.0
  P  P4031  1  0.99894163  0.95711951  0.33240166  1.0
  P  P4032  1  0.06772470  0.07276577  0.23716357  1.0
  P  P4033  1  0.06772470  0.21562291  0.23716357  1.0
  P  P4034  1  0.06772470  0.35848005  0.23716357  1.0
  P  P4035  1  0.06772470  0.50133719  0.23716357  1.0
  P  P4036  1  0.06772470  0.64419434  0.23716357  1.0
  P  P4037  1  0.06772470  0.78705148  0.23716357  1.0
  P  P4038  1  0.06772470  0.92990862  0.23716357  1.0
  P  P4039  1  0.17883581  0.07276577  0.23716357  1.0
  P  P4040  1  0.17883581  0.21562291  0.23716357  1.0
  P  P4041  1  0.17883581  0.35848005  0.23716357  1.0
  P  P4042  1  0.17883581  0.50133719  0.23716357  1.0
  P  P4043  1  0.17883581  0.64419434  0.23716357  1.0
  P  P4044  1  0.17883581  0.78705148  0.23716357  1.0
  P  P4045  1  0.17883581  0.92990862  0.23716357  1.0
  P  P4046  1  0.28994693  0.07276577  0.23716357  1.0
  P  P4047  1  0.28994693  0.21562291  0.23716357  1.0
  P  P4048  1  0.28994693  0.35848005  0.23716357  1.0
  P  P4049  1  0.28994693  0.50133719  0.23716357  1.0
  P  P4050  1  0.28994693  0.64419434  0.23716357  1.0
  P  P4051  1  0.28994693  0.78705148  0.23716357  1.0
  P  P4052  1  0.28994693  0.92990862  0.23716357  1.0
  P  P4053  1  0.40105804  0.07276577  0.23716357  1.0
  P  P4054  1  0.40105804  0.21562291  0.23716357  1.0
  P  P4055  1  0.40105804  0.35848005  0.23716357  1.0
  P  P4056  1  0.40105804  0.50133719  0.23716357  1.0
  P  P4057  1  0.40105804  0.64419434  0.23716357  1.0
  P  P4058  1  0.40105804  0.78705148  0.23716357  1.0
  P  P4059  1  0.40105804  0.92990862  0.23716357  1.0
  P  P4060  1  0.51216915  0.07276577  0.23716357  1.0
  P  P4061  1  0.51216915  0.21562291  0.23716357  1.0
  P  P4062  1  0.51216915  0.35848005  0.23716357  1.0
  P  P4063  1  0.51216915  0.50133719  0.23716357  1.0
  P  P4064  1  0.51216915  0.64419434  0.23716357  1.0
  P  P4065  1  0.51216915  0.78705148  0.23716357  1.0
  P  P4066  1  0.51216915  0.92990862  0.23716357  1.0
  P  P4067  1  0.62328026  0.07276577  0.23716357  1.0
  P  P4068  1  0.62328026  0.21562291  0.23716357  1.0
  P  P4069  1  0.62328026  0.35848005  0.23716357  1.0
  P  P4070  1  0.62328026  0.50133719  0.23716357  1.0
  P  P4071  1  0.62328026  0.64419434  0.23716357  1.0
  P  P4072  1  0.62328026  0.78705148  0.23716357  1.0
  P  P4073  1  0.62328026  0.92990862  0.23716357  1.0
  P  P4074  1  0.73439137  0.07276577  0.23716357  1.0
  P  P4075  1  0.73439137  0.21562291  0.23716357  1.0
  P  P4076  1  0.73439137  0.35848005  0.23716357  1.0
  P  P4077  1  0.73439137  0.50133719  0.23716357  1.0
  P  P4078  1  0.73439137  0.64419434  0.23716357  1.0
  P  P4079  1  0.73439137  0.78705148  0.23716357  1.0
  P  P4080  1  0.73439137  0.92990862  0.23716357  1.0
  P  P4081  1  0.84550248  0.07276577  0.23716357  1.0
  P  P4082  1  0.84550248  0.21562291  0.23716357  1.0
  P  P4083  1  0.84550248  0.35848005  0.23716357  1.0
  P  P4084  1  0.84550248  0.50133719  0.23716357  1.0
  P  P4085  1  0.84550248  0.64419434  0.23716357  1.0
  P  P4086  1  0.84550248  0.78705148  0.23716357  1.0
  P  P4087  1  0.84550248  0.92990862  0.23716357  1.0
  P  P4088  1  0.95661359  0.07276577  0.23716357  1.0
  P  P4089  1  0.95661359  0.21562291  0.23716357  1.0
  P  P4090  1  0.95661359  0.35848005  0.23716357  1.0
  P  P4091  1  0.95661359  0.50133719  0.23716357  1.0
  P  P4092  1  0.95661359  0.64419434  0.23716357  1.0
  P  P4093  1  0.95661359  0.78705148  0.23716357  1.0
  P  P4094  1  0.95661359  0.92990862  0.23716357  1.0
  P  P4095  1  0.09826532  0.08654437  0.24574251  1.0
  P  P4096  1  0.09826532  0.22940151  0.24574251  1.0
  P  P4097  1  0.09826532  0.37225866  0.24574251  1.0
  P  P4098  1  0.09826532  0.51511580  0.24574251  1.0
  P  P4099  1  0.09826532  0.65797294  0.24574251  1.0
  P  P4100  1  0.09826532  0.80083009  0.24574251  1.0
  P  P4101  1  0.09826532  0.94368723  0.24574251  1.0
  P  P4102  1  0.20937643  0.08654437  0.24574251  1.0
  P  P4103  1  0.20937643  0.22940151  0.24574251  1.0
  P  P4104  1  0.20937643  0.37225866  0.24574251  1.0
  P  P4105  1  0.20937643  0.51511580  0.24574251  1.0
  P  P4106  1  0.20937643  0.65797294  0.24574251  1.0
  P  P4107  1  0.20937643  0.80083009  0.24574251  1.0
  P  P4108  1  0.20937643  0.94368723  0.24574251  1.0
  P  P4109  1  0.32048754  0.08654437  0.24574251  1.0
  P  P4110  1  0.32048754  0.22940151  0.24574251  1.0
  P  P4111  1  0.32048754  0.37225866  0.24574251  1.0
  P  P4112  1  0.32048754  0.51511580  0.24574251  1.0
  P  P4113  1  0.32048754  0.65797294  0.24574251  1.0
  P  P4114  1  0.32048754  0.80083009  0.24574251  1.0
  P  P4115  1  0.32048754  0.94368723  0.24574251  1.0
  P  P4116  1  0.43159866  0.08654437  0.24574251  1.0
  P  P4117  1  0.43159866  0.22940151  0.24574251  1.0
  P  P4118  1  0.43159866  0.37225866  0.24574251  1.0
  P  P4119  1  0.43159866  0.51511580  0.24574251  1.0
  P  P4120  1  0.43159866  0.65797294  0.24574251  1.0
  P  P4121  1  0.43159866  0.80083009  0.24574251  1.0
  P  P4122  1  0.43159866  0.94368723  0.24574251  1.0
  P  P4123  1  0.54270977  0.08654437  0.24574251  1.0
  P  P4124  1  0.54270977  0.22940151  0.24574251  1.0
  P  P4125  1  0.54270977  0.37225866  0.24574251  1.0
  P  P4126  1  0.54270977  0.51511580  0.24574251  1.0
  P  P4127  1  0.54270977  0.65797294  0.24574251  1.0
  P  P4128  1  0.54270977  0.80083009  0.24574251  1.0
  P  P4129  1  0.54270977  0.94368723  0.24574251  1.0
  P  P4130  1  0.65382088  0.08654437  0.24574251  1.0
  P  P4131  1  0.65382088  0.22940151  0.24574251  1.0
  P  P4132  1  0.65382088  0.37225866  0.24574251  1.0
  P  P4133  1  0.65382088  0.51511580  0.24574251  1.0
  P  P4134  1  0.65382088  0.65797294  0.24574251  1.0
  P  P4135  1  0.65382088  0.80083009  0.24574251  1.0
  P  P4136  1  0.65382088  0.94368723  0.24574251  1.0
  P  P4137  1  0.76493199  0.08654437  0.24574251  1.0
  P  P4138  1  0.76493199  0.22940151  0.24574251  1.0
  P  P4139  1  0.76493199  0.37225866  0.24574251  1.0
  P  P4140  1  0.76493199  0.51511580  0.24574251  1.0
  P  P4141  1  0.76493199  0.65797294  0.24574251  1.0
  P  P4142  1  0.76493199  0.80083009  0.24574251  1.0
  P  P4143  1  0.76493199  0.94368723  0.24574251  1.0
  P  P4144  1  0.87604310  0.08654437  0.24574251  1.0
  P  P4145  1  0.87604310  0.22940151  0.24574251  1.0
  P  P4146  1  0.87604310  0.37225866  0.24574251  1.0
  P  P4147  1  0.87604310  0.51511580  0.24574251  1.0
  P  P4148  1  0.87604310  0.65797294  0.24574251  1.0
  P  P4149  1  0.87604310  0.80083009  0.24574251  1.0
  P  P4150  1  0.87604310  0.94368723  0.24574251  1.0
  P  P4151  1  0.98715421  0.08654437  0.24574251  1.0
  P  P4152  1  0.98715421  0.22940151  0.24574251  1.0
  P  P4153  1  0.98715421  0.37225866  0.24574251  1.0
  P  P4154  1  0.98715421  0.51511580  0.24574251  1.0
  P  P4155  1  0.98715421  0.65797294  0.24574251  1.0
  P  P4156  1  0.98715421  0.80083009  0.24574251  1.0
  P  P4157  1  0.98715421  0.94368723  0.24574251  1.0
  P  P4158  1  0.00831823  0.10014981  0.29336156  1.0
  P  P4159  1  0.00831823  0.24300696  0.29336156  1.0
  P  P4160  1  0.00831823  0.38586410  0.29336156  1.0
  P  P4161  1  0.00831823  0.52872124  0.29336156  1.0
  P  P4162  1  0.00831823  0.67157838  0.29336156  1.0
  P  P4163  1  0.00831823  0.81443553  0.29336156  1.0
  P  P4164  1  0.00831823  0.95729267  0.29336156  1.0
  P  P4165  1  0.11942934  0.10014981  0.29336156  1.0
  P  P4166  1  0.11942934  0.24300696  0.29336156  1.0
  P  P4167  1  0.11942934  0.38586410  0.29336156  1.0
  P  P4168  1  0.11942934  0.52872124  0.29336156  1.0
  P  P4169  1  0.11942934  0.67157838  0.29336156  1.0
  P  P4170  1  0.11942934  0.81443553  0.29336156  1.0
  P  P4171  1  0.11942934  0.95729267  0.29336156  1.0
  P  P4172  1  0.23054045  0.10014981  0.29336156  1.0
  P  P4173  1  0.23054045  0.24300696  0.29336156  1.0
  P  P4174  1  0.23054045  0.38586410  0.29336156  1.0
  P  P4175  1  0.23054045  0.52872124  0.29336156  1.0
  P  P4176  1  0.23054045  0.67157838  0.29336156  1.0
  P  P4177  1  0.23054045  0.81443553  0.29336156  1.0
  P  P4178  1  0.23054045  0.95729267  0.29336156  1.0
  P  P4179  1  0.34165157  0.10014981  0.29336156  1.0
  P  P4180  1  0.34165157  0.24300696  0.29336156  1.0
  P  P4181  1  0.34165157  0.38586410  0.29336156  1.0
  P  P4182  1  0.34165157  0.52872124  0.29336156  1.0
  P  P4183  1  0.34165157  0.67157838  0.29336156  1.0
  P  P4184  1  0.34165157  0.81443553  0.29336156  1.0
  P  P4185  1  0.34165157  0.95729267  0.29336156  1.0
  P  P4186  1  0.45276268  0.10014981  0.29336156  1.0
  P  P4187  1  0.45276268  0.24300696  0.29336156  1.0
  P  P4188  1  0.45276268  0.38586410  0.29336156  1.0
  P  P4189  1  0.45276268  0.52872124  0.29336156  1.0
  P  P4190  1  0.45276268  0.67157838  0.29336156  1.0
  P  P4191  1  0.45276268  0.81443553  0.29336156  1.0
  P  P4192  1  0.45276268  0.95729267  0.29336156  1.0
  P  P4193  1  0.56387379  0.10014981  0.29336156  1.0
  P  P4194  1  0.56387379  0.24300696  0.29336156  1.0
  P  P4195  1  0.56387379  0.38586410  0.29336156  1.0
  P  P4196  1  0.56387379  0.52872124  0.29336156  1.0
  P  P4197  1  0.56387379  0.67157838  0.29336156  1.0
  P  P4198  1  0.56387379  0.81443553  0.29336156  1.0
  P  P4199  1  0.56387379  0.95729267  0.29336156  1.0
  P  P4200  1  0.67498490  0.10014981  0.29336156  1.0
  P  P4201  1  0.67498490  0.24300696  0.29336156  1.0
  P  P4202  1  0.67498490  0.38586410  0.29336156  1.0
  P  P4203  1  0.67498490  0.52872124  0.29336156  1.0
  P  P4204  1  0.67498490  0.67157838  0.29336156  1.0
  P  P4205  1  0.67498490  0.81443553  0.29336156  1.0
  P  P4206  1  0.67498490  0.95729267  0.29336156  1.0
  P  P4207  1  0.78609601  0.10014981  0.29336156  1.0
  P  P4208  1  0.78609601  0.24300696  0.29336156  1.0
  P  P4209  1  0.78609601  0.38586410  0.29336156  1.0
  P  P4210  1  0.78609601  0.52872124  0.29336156  1.0
  P  P4211  1  0.78609601  0.67157838  0.29336156  1.0
  P  P4212  1  0.78609601  0.81443553  0.29336156  1.0
  P  P4213  1  0.78609601  0.95729267  0.29336156  1.0
  P  P4214  1  0.89720712  0.10014981  0.29336156  1.0
  P  P4215  1  0.89720712  0.24300696  0.29336156  1.0
  P  P4216  1  0.89720712  0.38586410  0.29336156  1.0
  P  P4217  1  0.89720712  0.52872124  0.29336156  1.0
  P  P4218  1  0.89720712  0.67157838  0.29336156  1.0
  P  P4219  1  0.89720712  0.81443553  0.29336156  1.0
  P  P4220  1  0.89720712  0.95729267  0.29336156  1.0
  P  P4221  1  0.02948225  0.11375526  0.34098061  1.0
  P  P4222  1  0.02948225  0.25661240  0.34098061  1.0
  P  P4223  1  0.02948225  0.39946954  0.34098061  1.0
  P  P4224  1  0.02948225  0.54232668  0.34098061  1.0
  P  P4225  1  0.02948225  0.68518383  0.34098061  1.0
  P  P4226  1  0.02948225  0.82804097  0.34098061  1.0
  P  P4227  1  0.02948225  0.97089811  0.34098061  1.0
  P  P4228  1  0.14059336  0.11375526  0.34098061  1.0
  P  P4229  1  0.14059336  0.25661240  0.34098061  1.0
  P  P4230  1  0.14059336  0.39946954  0.34098061  1.0
  P  P4231  1  0.14059336  0.54232668  0.34098061  1.0
  P  P4232  1  0.14059336  0.68518383  0.34098061  1.0
  P  P4233  1  0.14059336  0.82804097  0.34098061  1.0
  P  P4234  1  0.14059336  0.97089811  0.34098061  1.0
  P  P4235  1  0.25170448  0.11375526  0.34098061  1.0
  P  P4236  1  0.25170448  0.25661240  0.34098061  1.0
  P  P4237  1  0.25170448  0.39946954  0.34098061  1.0
  P  P4238  1  0.25170448  0.54232668  0.34098061  1.0
  P  P4239  1  0.25170448  0.68518383  0.34098061  1.0
  P  P4240  1  0.25170448  0.82804097  0.34098061  1.0
  P  P4241  1  0.25170448  0.97089811  0.34098061  1.0
  P  P4242  1  0.36281559  0.11375526  0.34098061  1.0
  P  P4243  1  0.36281559  0.25661240  0.34098061  1.0
  P  P4244  1  0.36281559  0.39946954  0.34098061  1.0
  P  P4245  1  0.36281559  0.54232668  0.34098061  1.0
  P  P4246  1  0.36281559  0.68518383  0.34098061  1.0
  P  P4247  1  0.36281559  0.82804097  0.34098061  1.0
  P  P4248  1  0.36281559  0.97089811  0.34098061  1.0
  P  P4249  1  0.47392670  0.11375526  0.34098061  1.0
  P  P4250  1  0.47392670  0.25661240  0.34098061  1.0
  P  P4251  1  0.47392670  0.39946954  0.34098061  1.0
  P  P4252  1  0.47392670  0.54232668  0.34098061  1.0
  P  P4253  1  0.47392670  0.68518383  0.34098061  1.0
  P  P4254  1  0.47392670  0.82804097  0.34098061  1.0
  P  P4255  1  0.47392670  0.97089811  0.34098061  1.0
  P  P4256  1  0.58503781  0.11375526  0.34098061  1.0
  P  P4257  1  0.58503781  0.25661240  0.34098061  1.0
  P  P4258  1  0.58503781  0.39946954  0.34098061  1.0
  P  P4259  1  0.58503781  0.54232668  0.34098061  1.0
  P  P4260  1  0.58503781  0.68518383  0.34098061  1.0
  P  P4261  1  0.58503781  0.82804097  0.34098061  1.0
  P  P4262  1  0.58503781  0.97089811  0.34098061  1.0
  P  P4263  1  0.69614892  0.11375526  0.34098061  1.0
  P  P4264  1  0.69614892  0.25661240  0.34098061  1.0
  P  P4265  1  0.69614892  0.39946954  0.34098061  1.0
  P  P4266  1  0.69614892  0.54232668  0.34098061  1.0
  P  P4267  1  0.69614892  0.68518383  0.34098061  1.0
  P  P4268  1  0.69614892  0.82804097  0.34098061  1.0
  P  P4269  1  0.69614892  0.97089811  0.34098061  1.0
  P  P4270  1  0.80726003  0.11375526  0.34098061  1.0
  P  P4271  1  0.80726003  0.25661240  0.34098061  1.0
  P  P4272  1  0.80726003  0.39946954  0.34098061  1.0
  P  P4273  1  0.80726003  0.54232668  0.34098061  1.0
  P  P4274  1  0.80726003  0.68518383  0.34098061  1.0
  P  P4275  1  0.80726003  0.82804097  0.34098061  1.0
  P  P4276  1  0.80726003  0.97089811  0.34098061  1.0
  P  P4277  1  0.91837114  0.11375526  0.34098061  1.0
  P  P4278  1  0.91837114  0.25661240  0.34098061  1.0
  P  P4279  1  0.91837114  0.39946954  0.34098061  1.0
  P  P4280  1  0.91837114  0.54232668  0.34098061  1.0
  P  P4281  1  0.91837114  0.68518383  0.34098061  1.0
  P  P4282  1  0.91837114  0.82804097  0.34098061  1.0
  P  P4283  1  0.91837114  0.97089811  0.34098061  1.0
  P  P4284  1  0.05625507  0.07575547  0.40931681  1.0
  P  P4285  1  0.05625507  0.21861262  0.40931681  1.0
  P  P4286  1  0.05625507  0.36146976  0.40931681  1.0
  P  P4287  1  0.05625507  0.50432690  0.40931681  1.0
  P  P4288  1  0.05625507  0.64718405  0.40931681  1.0
  P  P4289  1  0.05625507  0.79004119  0.40931681  1.0
  P  P4290  1  0.05625507  0.93289833  0.40931681  1.0
  P  P4291  1  0.16736618  0.07575547  0.40931681  1.0
  P  P4292  1  0.16736618  0.21861262  0.40931681  1.0
  P  P4293  1  0.16736618  0.36146976  0.40931681  1.0
  P  P4294  1  0.16736618  0.50432690  0.40931681  1.0
  P  P4295  1  0.16736618  0.64718405  0.40931681  1.0
  P  P4296  1  0.16736618  0.79004119  0.40931681  1.0
  P  P4297  1  0.16736618  0.93289833  0.40931681  1.0
  P  P4298  1  0.27847729  0.07575547  0.40931681  1.0
  P  P4299  1  0.27847729  0.21861262  0.40931681  1.0
  P  P4300  1  0.27847729  0.36146976  0.40931681  1.0
  P  P4301  1  0.27847729  0.50432690  0.40931681  1.0
  P  P4302  1  0.27847729  0.64718405  0.40931681  1.0
  P  P4303  1  0.27847729  0.79004119  0.40931681  1.0
  P  P4304  1  0.27847729  0.93289833  0.40931681  1.0
  P  P4305  1  0.38958841  0.07575547  0.40931681  1.0
  P  P4306  1  0.38958841  0.21861262  0.40931681  1.0
  P  P4307  1  0.38958841  0.36146976  0.40931681  1.0
  P  P4308  1  0.38958841  0.50432690  0.40931681  1.0
  P  P4309  1  0.38958841  0.64718405  0.40931681  1.0
  P  P4310  1  0.38958841  0.79004119  0.40931681  1.0
  P  P4311  1  0.38958841  0.93289833  0.40931681  1.0
  P  P4312  1  0.50069952  0.07575547  0.40931681  1.0
  P  P4313  1  0.50069952  0.21861262  0.40931681  1.0
  P  P4314  1  0.50069952  0.36146976  0.40931681  1.0
  P  P4315  1  0.50069952  0.50432690  0.40931681  1.0
  P  P4316  1  0.50069952  0.64718405  0.40931681  1.0
  P  P4317  1  0.50069952  0.79004119  0.40931681  1.0
  P  P4318  1  0.50069952  0.93289833  0.40931681  1.0
  P  P4319  1  0.61181063  0.07575547  0.40931681  1.0
  P  P4320  1  0.61181063  0.21861262  0.40931681  1.0
  P  P4321  1  0.61181063  0.36146976  0.40931681  1.0
  P  P4322  1  0.61181063  0.50432690  0.40931681  1.0
  P  P4323  1  0.61181063  0.64718405  0.40931681  1.0
  P  P4324  1  0.61181063  0.79004119  0.40931681  1.0
  P  P4325  1  0.61181063  0.93289833  0.40931681  1.0
  P  P4326  1  0.72292174  0.07575547  0.40931681  1.0
  P  P4327  1  0.72292174  0.21861262  0.40931681  1.0
  P  P4328  1  0.72292174  0.36146976  0.40931681  1.0
  P  P4329  1  0.72292174  0.50432690  0.40931681  1.0
  P  P4330  1  0.72292174  0.64718405  0.40931681  1.0
  P  P4331  1  0.72292174  0.79004119  0.40931681  1.0
  P  P4332  1  0.72292174  0.93289833  0.40931681  1.0
  P  P4333  1  0.83403285  0.07575547  0.40931681  1.0
  P  P4334  1  0.83403285  0.21861262  0.40931681  1.0
  P  P4335  1  0.83403285  0.36146976  0.40931681  1.0
  P  P4336  1  0.83403285  0.50432690  0.40931681  1.0
  P  P4337  1  0.83403285  0.64718405  0.40931681  1.0
  P  P4338  1  0.83403285  0.79004119  0.40931681  1.0
  P  P4339  1  0.83403285  0.93289833  0.40931681  1.0
  P  P4340  1  0.94514396  0.07575547  0.40931681  1.0
  P  P4341  1  0.94514396  0.21861262  0.40931681  1.0
  P  P4342  1  0.94514396  0.36146976  0.40931681  1.0
  P  P4343  1  0.94514396  0.50432690  0.40931681  1.0
  P  P4344  1  0.94514396  0.64718405  0.40931681  1.0
  P  P4345  1  0.94514396  0.79004119  0.40931681  1.0
  P  P4346  1  0.94514396  0.93289833  0.40931681  1.0
  P  P4347  1  0.07741909  0.08936092  0.45693586  1.0
  P  P4348  1  0.07741909  0.23221806  0.45693586  1.0
  P  P4349  1  0.07741909  0.37507520  0.45693586  1.0
  P  P4350  1  0.07741909  0.51793235  0.45693586  1.0
  P  P4351  1  0.07741909  0.66078949  0.45693586  1.0
  P  P4352  1  0.07741909  0.80364663  0.45693586  1.0
  P  P4353  1  0.07741909  0.94650377  0.45693586  1.0
  P  P4354  1  0.18853020  0.08936092  0.45693586  1.0
  P  P4355  1  0.18853020  0.23221806  0.45693586  1.0
  P  P4356  1  0.18853020  0.37507520  0.45693586  1.0
  P  P4357  1  0.18853020  0.51793235  0.45693586  1.0
  P  P4358  1  0.18853020  0.66078949  0.45693586  1.0
  P  P4359  1  0.18853020  0.80364663  0.45693586  1.0
  P  P4360  1  0.18853020  0.94650377  0.45693586  1.0
  P  P4361  1  0.29964132  0.08936092  0.45693586  1.0
  P  P4362  1  0.29964132  0.23221806  0.45693586  1.0
  P  P4363  1  0.29964132  0.37507520  0.45693586  1.0
  P  P4364  1  0.29964132  0.51793235  0.45693586  1.0
  P  P4365  1  0.29964132  0.66078949  0.45693586  1.0
  P  P4366  1  0.29964132  0.80364663  0.45693586  1.0
  P  P4367  1  0.29964132  0.94650377  0.45693586  1.0
  P  P4368  1  0.41075243  0.08936092  0.45693586  1.0
  P  P4369  1  0.41075243  0.23221806  0.45693586  1.0
  P  P4370  1  0.41075243  0.37507520  0.45693586  1.0
  P  P4371  1  0.41075243  0.51793235  0.45693586  1.0
  P  P4372  1  0.41075243  0.66078949  0.45693586  1.0
  P  P4373  1  0.41075243  0.80364663  0.45693586  1.0
  P  P4374  1  0.41075243  0.94650377  0.45693586  1.0
  P  P4375  1  0.52186354  0.08936092  0.45693586  1.0
  P  P4376  1  0.52186354  0.23221806  0.45693586  1.0
  P  P4377  1  0.52186354  0.37507520  0.45693586  1.0
  P  P4378  1  0.52186354  0.51793235  0.45693586  1.0
  P  P4379  1  0.52186354  0.66078949  0.45693586  1.0
  P  P4380  1  0.52186354  0.80364663  0.45693586  1.0
  P  P4381  1  0.52186354  0.94650377  0.45693586  1.0
  P  P4382  1  0.63297465  0.08936092  0.45693586  1.0
  P  P4383  1  0.63297465  0.23221806  0.45693586  1.0
  P  P4384  1  0.63297465  0.37507520  0.45693586  1.0
  P  P4385  1  0.63297465  0.51793235  0.45693586  1.0
  P  P4386  1  0.63297465  0.66078949  0.45693586  1.0
  P  P4387  1  0.63297465  0.80364663  0.45693586  1.0
  P  P4388  1  0.63297465  0.94650377  0.45693586  1.0
  P  P4389  1  0.74408576  0.08936092  0.45693586  1.0
  P  P4390  1  0.74408576  0.23221806  0.45693586  1.0
  P  P4391  1  0.74408576  0.37507520  0.45693586  1.0
  P  P4392  1  0.74408576  0.51793235  0.45693586  1.0
  P  P4393  1  0.74408576  0.66078949  0.45693586  1.0
  P  P4394  1  0.74408576  0.80364663  0.45693586  1.0
  P  P4395  1  0.74408576  0.94650377  0.45693586  1.0
  P  P4396  1  0.85519687  0.08936092  0.45693586  1.0
  P  P4397  1  0.85519687  0.23221806  0.45693586  1.0
  P  P4398  1  0.85519687  0.37507520  0.45693586  1.0
  P  P4399  1  0.85519687  0.51793235  0.45693586  1.0
  P  P4400  1  0.85519687  0.66078949  0.45693586  1.0
  P  P4401  1  0.85519687  0.80364663  0.45693586  1.0
  P  P4402  1  0.85519687  0.94650377  0.45693586  1.0
  P  P4403  1  0.96630798  0.08936092  0.45693586  1.0
  P  P4404  1  0.96630798  0.23221806  0.45693586  1.0
  P  P4405  1  0.96630798  0.37507520  0.45693586  1.0
  P  P4406  1  0.96630798  0.51793235  0.45693586  1.0
  P  P4407  1  0.96630798  0.66078949  0.45693586  1.0
  P  P4408  1  0.96630798  0.80364663  0.45693586  1.0
  P  P4409  1  0.96630798  0.94650377  0.45693586  1.0
  P  P4410  1  0.03509105  0.06215003  0.36169777  1.0
  P  P4411  1  0.03509105  0.20500717  0.36169777  1.0
  P  P4412  1  0.03509105  0.34786432  0.36169777  1.0
  P  P4413  1  0.03509105  0.49072146  0.36169777  1.0
  P  P4414  1  0.03509105  0.63357860  0.36169777  1.0
  P  P4415  1  0.03509105  0.77643575  0.36169777  1.0
  P  P4416  1  0.03509105  0.91929289  0.36169777  1.0
  P  P4417  1  0.14620216  0.06215003  0.36169777  1.0
  P  P4418  1  0.14620216  0.20500717  0.36169777  1.0
  P  P4419  1  0.14620216  0.34786432  0.36169777  1.0
  P  P4420  1  0.14620216  0.49072146  0.36169777  1.0
  P  P4421  1  0.14620216  0.63357860  0.36169777  1.0
  P  P4422  1  0.14620216  0.77643575  0.36169777  1.0
  P  P4423  1  0.14620216  0.91929289  0.36169777  1.0
  P  P4424  1  0.25731327  0.06215003  0.36169777  1.0
  P  P4425  1  0.25731327  0.20500717  0.36169777  1.0
  P  P4426  1  0.25731327  0.34786432  0.36169777  1.0
  P  P4427  1  0.25731327  0.49072146  0.36169777  1.0
  P  P4428  1  0.25731327  0.63357860  0.36169777  1.0
  P  P4429  1  0.25731327  0.77643575  0.36169777  1.0
  P  P4430  1  0.25731327  0.91929289  0.36169777  1.0
  P  P4431  1  0.36842438  0.06215003  0.36169777  1.0
  P  P4432  1  0.36842438  0.20500717  0.36169777  1.0
  P  P4433  1  0.36842438  0.34786432  0.36169777  1.0
  P  P4434  1  0.36842438  0.49072146  0.36169777  1.0
  P  P4435  1  0.36842438  0.63357860  0.36169777  1.0
  P  P4436  1  0.36842438  0.77643575  0.36169777  1.0
  P  P4437  1  0.36842438  0.91929289  0.36169777  1.0
  P  P4438  1  0.47953550  0.06215003  0.36169777  1.0
  P  P4439  1  0.47953550  0.20500717  0.36169777  1.0
  P  P4440  1  0.47953550  0.34786432  0.36169777  1.0
  P  P4441  1  0.47953550  0.49072146  0.36169777  1.0
  P  P4442  1  0.47953550  0.63357860  0.36169777  1.0
  P  P4443  1  0.47953550  0.77643575  0.36169777  1.0
  P  P4444  1  0.47953550  0.91929289  0.36169777  1.0
  P  P4445  1  0.59064661  0.06215003  0.36169777  1.0
  P  P4446  1  0.59064661  0.20500717  0.36169777  1.0
  P  P4447  1  0.59064661  0.34786432  0.36169777  1.0
  P  P4448  1  0.59064661  0.49072146  0.36169777  1.0
  P  P4449  1  0.59064661  0.63357860  0.36169777  1.0
  P  P4450  1  0.59064661  0.77643575  0.36169777  1.0
  P  P4451  1  0.59064661  0.91929289  0.36169777  1.0
  P  P4452  1  0.70175772  0.06215003  0.36169777  1.0
  P  P4453  1  0.70175772  0.20500717  0.36169777  1.0
  P  P4454  1  0.70175772  0.34786432  0.36169777  1.0
  P  P4455  1  0.70175772  0.49072146  0.36169777  1.0
  P  P4456  1  0.70175772  0.63357860  0.36169777  1.0
  P  P4457  1  0.70175772  0.77643575  0.36169777  1.0
  P  P4458  1  0.70175772  0.91929289  0.36169777  1.0
  P  P4459  1  0.81286883  0.06215003  0.36169777  1.0
  P  P4460  1  0.81286883  0.20500717  0.36169777  1.0
  P  P4461  1  0.81286883  0.34786432  0.36169777  1.0
  P  P4462  1  0.81286883  0.49072146  0.36169777  1.0
  P  P4463  1  0.81286883  0.63357860  0.36169777  1.0
  P  P4464  1  0.81286883  0.77643575  0.36169777  1.0
  P  P4465  1  0.81286883  0.91929289  0.36169777  1.0
  P  P4466  1  0.92397994  0.06215003  0.36169777  1.0
  P  P4467  1  0.92397994  0.20500717  0.36169777  1.0
  P  P4468  1  0.92397994  0.34786432  0.36169777  1.0
  P  P4469  1  0.92397994  0.49072146  0.36169777  1.0
  P  P4470  1  0.92397994  0.63357860  0.36169777  1.0
  P  P4471  1  0.92397994  0.77643575  0.36169777  1.0
  P  P4472  1  0.92397994  0.91929289  0.36169777  1.0
  P  P4473  1  0.03566088  0.03593562  0.40692260  1.0
  P  P4474  1  0.03566088  0.17879276  0.40692260  1.0
  P  P4475  1  0.03566088  0.32164990  0.40692260  1.0
  P  P4476  1  0.03566088  0.46450704  0.40692260  1.0
  P  P4477  1  0.03566088  0.60736419  0.40692260  1.0
  P  P4478  1  0.03566088  0.75022133  0.40692260  1.0
  P  P4479  1  0.03566088  0.89307847  0.40692260  1.0
  P  P4480  1  0.14677199  0.03593562  0.40692260  1.0
  P  P4481  1  0.14677199  0.17879276  0.40692260  1.0
  P  P4482  1  0.14677199  0.32164990  0.40692260  1.0
  P  P4483  1  0.14677199  0.46450704  0.40692260  1.0
  P  P4484  1  0.14677199  0.60736419  0.40692260  1.0
  P  P4485  1  0.14677199  0.75022133  0.40692260  1.0
  P  P4486  1  0.14677199  0.89307847  0.40692260  1.0
  P  P4487  1  0.25788310  0.03593562  0.40692260  1.0
  P  P4488  1  0.25788310  0.17879276  0.40692260  1.0
  P  P4489  1  0.25788310  0.32164990  0.40692260  1.0
  P  P4490  1  0.25788310  0.46450704  0.40692260  1.0
  P  P4491  1  0.25788310  0.60736419  0.40692260  1.0
  P  P4492  1  0.25788310  0.75022133  0.40692260  1.0
  P  P4493  1  0.25788310  0.89307847  0.40692260  1.0
  P  P4494  1  0.36899421  0.03593562  0.40692260  1.0
  P  P4495  1  0.36899421  0.17879276  0.40692260  1.0
  P  P4496  1  0.36899421  0.32164990  0.40692260  1.0
  P  P4497  1  0.36899421  0.46450704  0.40692260  1.0
  P  P4498  1  0.36899421  0.60736419  0.40692260  1.0
  P  P4499  1  0.36899421  0.75022133  0.40692260  1.0
  P  P4500  1  0.36899421  0.89307847  0.40692260  1.0
  P  P4501  1  0.48010532  0.03593562  0.40692260  1.0
  P  P4502  1  0.48010532  0.17879276  0.40692260  1.0
  P  P4503  1  0.48010532  0.32164990  0.40692260  1.0
  P  P4504  1  0.48010532  0.46450704  0.40692260  1.0
  P  P4505  1  0.48010532  0.60736419  0.40692260  1.0
  P  P4506  1  0.48010532  0.75022133  0.40692260  1.0
  P  P4507  1  0.48010532  0.89307847  0.40692260  1.0
  P  P4508  1  0.59121643  0.03593562  0.40692260  1.0
  P  P4509  1  0.59121643  0.17879276  0.40692260  1.0
  P  P4510  1  0.59121643  0.32164990  0.40692260  1.0
  P  P4511  1  0.59121643  0.46450704  0.40692260  1.0
  P  P4512  1  0.59121643  0.60736419  0.40692260  1.0
  P  P4513  1  0.59121643  0.75022133  0.40692260  1.0
  P  P4514  1  0.59121643  0.89307847  0.40692260  1.0
  P  P4515  1  0.70232755  0.03593562  0.40692260  1.0
  P  P4516  1  0.70232755  0.17879276  0.40692260  1.0
  P  P4517  1  0.70232755  0.32164990  0.40692260  1.0
  P  P4518  1  0.70232755  0.46450704  0.40692260  1.0
  P  P4519  1  0.70232755  0.60736419  0.40692260  1.0
  P  P4520  1  0.70232755  0.75022133  0.40692260  1.0
  P  P4521  1  0.70232755  0.89307847  0.40692260  1.0
  P  P4522  1  0.81343866  0.03593562  0.40692260  1.0
  P  P4523  1  0.81343866  0.17879276  0.40692260  1.0
  P  P4524  1  0.81343866  0.32164990  0.40692260  1.0
  P  P4525  1  0.81343866  0.46450704  0.40692260  1.0
  P  P4526  1  0.81343866  0.60736419  0.40692260  1.0
  P  P4527  1  0.81343866  0.75022133  0.40692260  1.0
  P  P4528  1  0.81343866  0.89307847  0.40692260  1.0
  P  P4529  1  0.92454977  0.03593562  0.40692260  1.0
  P  P4530  1  0.92454977  0.17879276  0.40692260  1.0
  P  P4531  1  0.92454977  0.32164990  0.40692260  1.0
  P  P4532  1  0.92454977  0.46450704  0.40692260  1.0
  P  P4533  1  0.92454977  0.60736419  0.40692260  1.0
  P  P4534  1  0.92454977  0.75022133  0.40692260  1.0
  P  P4535  1  0.92454977  0.89307847  0.40692260  1.0
  P  P4536  1  0.05682490  0.04954106  0.45454164  1.0
  P  P4537  1  0.05682490  0.19239820  0.45454164  1.0
  P  P4538  1  0.05682490  0.33525534  0.45454164  1.0
  P  P4539  1  0.05682490  0.47811249  0.45454164  1.0
  P  P4540  1  0.05682490  0.62096963  0.45454164  1.0
  P  P4541  1  0.05682490  0.76382677  0.45454164  1.0
  P  P4542  1  0.05682490  0.90668391  0.45454164  1.0
  P  P4543  1  0.16793601  0.04954106  0.45454164  1.0
  P  P4544  1  0.16793601  0.19239820  0.45454164  1.0
  P  P4545  1  0.16793601  0.33525534  0.45454164  1.0
  P  P4546  1  0.16793601  0.47811249  0.45454164  1.0
  P  P4547  1  0.16793601  0.62096963  0.45454164  1.0
  P  P4548  1  0.16793601  0.76382677  0.45454164  1.0
  P  P4549  1  0.16793601  0.90668391  0.45454164  1.0
  P  P4550  1  0.27904712  0.04954106  0.45454164  1.0
  P  P4551  1  0.27904712  0.19239820  0.45454164  1.0
  P  P4552  1  0.27904712  0.33525534  0.45454164  1.0
  P  P4553  1  0.27904712  0.47811249  0.45454164  1.0
  P  P4554  1  0.27904712  0.62096963  0.45454164  1.0
  P  P4555  1  0.27904712  0.76382677  0.45454164  1.0
  P  P4556  1  0.27904712  0.90668391  0.45454164  1.0
  P  P4557  1  0.39015823  0.04954106  0.45454164  1.0
  P  P4558  1  0.39015823  0.19239820  0.45454164  1.0
  P  P4559  1  0.39015823  0.33525534  0.45454164  1.0
  P  P4560  1  0.39015823  0.47811249  0.45454164  1.0
  P  P4561  1  0.39015823  0.62096963  0.45454164  1.0
  P  P4562  1  0.39015823  0.76382677  0.45454164  1.0
  P  P4563  1  0.39015823  0.90668391  0.45454164  1.0
  P  P4564  1  0.50126934  0.04954106  0.45454164  1.0
  P  P4565  1  0.50126934  0.19239820  0.45454164  1.0
  P  P4566  1  0.50126934  0.33525534  0.45454164  1.0
  P  P4567  1  0.50126934  0.47811249  0.45454164  1.0
  P  P4568  1  0.50126934  0.62096963  0.45454164  1.0
  P  P4569  1  0.50126934  0.76382677  0.45454164  1.0
  P  P4570  1  0.50126934  0.90668391  0.45454164  1.0
  P  P4571  1  0.61238046  0.04954106  0.45454164  1.0
  P  P4572  1  0.61238046  0.19239820  0.45454164  1.0
  P  P4573  1  0.61238046  0.33525534  0.45454164  1.0
  P  P4574  1  0.61238046  0.47811249  0.45454164  1.0
  P  P4575  1  0.61238046  0.62096963  0.45454164  1.0
  P  P4576  1  0.61238046  0.76382677  0.45454164  1.0
  P  P4577  1  0.61238046  0.90668391  0.45454164  1.0
  P  P4578  1  0.72349157  0.04954106  0.45454164  1.0
  P  P4579  1  0.72349157  0.19239820  0.45454164  1.0
  P  P4580  1  0.72349157  0.33525534  0.45454164  1.0
  P  P4581  1  0.72349157  0.47811249  0.45454164  1.0
  P  P4582  1  0.72349157  0.62096963  0.45454164  1.0
  P  P4583  1  0.72349157  0.76382677  0.45454164  1.0
  P  P4584  1  0.72349157  0.90668391  0.45454164  1.0
  P  P4585  1  0.83460268  0.04954106  0.45454164  1.0
  P  P4586  1  0.83460268  0.19239820  0.45454164  1.0
  P  P4587  1  0.83460268  0.33525534  0.45454164  1.0
  P  P4588  1  0.83460268  0.47811249  0.45454164  1.0
  P  P4589  1  0.83460268  0.62096963  0.45454164  1.0
  P  P4590  1  0.83460268  0.76382677  0.45454164  1.0
  P  P4591  1  0.83460268  0.90668391  0.45454164  1.0
  P  P4592  1  0.94571379  0.04954106  0.45454164  1.0
  P  P4593  1  0.94571379  0.19239820  0.45454164  1.0
  P  P4594  1  0.94571379  0.33525534  0.45454164  1.0
  P  P4595  1  0.94571379  0.47811249  0.45454164  1.0
  P  P4596  1  0.94571379  0.62096963  0.45454164  1.0
  P  P4597  1  0.94571379  0.76382677  0.45454164  1.0
  P  P4598  1  0.94571379  0.90668391  0.45454164  1.0
  P  P4599  1  0.01449686  0.02233017  0.35930355  1.0
  P  P4600  1  0.01449686  0.16518732  0.35930355  1.0
  P  P4601  1  0.01449686  0.30804446  0.35930355  1.0
  P  P4602  1  0.01449686  0.45090160  0.35930355  1.0
  P  P4603  1  0.01449686  0.59375874  0.35930355  1.0
  P  P4604  1  0.01449686  0.73661589  0.35930355  1.0
  P  P4605  1  0.01449686  0.87947303  0.35930355  1.0
  P  P4606  1  0.12560797  0.02233017  0.35930355  1.0
  P  P4607  1  0.12560797  0.16518732  0.35930355  1.0
  P  P4608  1  0.12560797  0.30804446  0.35930355  1.0
  P  P4609  1  0.12560797  0.45090160  0.35930355  1.0
  P  P4610  1  0.12560797  0.59375874  0.35930355  1.0
  P  P4611  1  0.12560797  0.73661589  0.35930355  1.0
  P  P4612  1  0.12560797  0.87947303  0.35930355  1.0
  P  P4613  1  0.23671908  0.02233017  0.35930355  1.0
  P  P4614  1  0.23671908  0.16518732  0.35930355  1.0
  P  P4615  1  0.23671908  0.30804446  0.35930355  1.0
  P  P4616  1  0.23671908  0.45090160  0.35930355  1.0
  P  P4617  1  0.23671908  0.59375874  0.35930355  1.0
  P  P4618  1  0.23671908  0.73661589  0.35930355  1.0
  P  P4619  1  0.23671908  0.87947303  0.35930355  1.0
  P  P4620  1  0.34783019  0.02233017  0.35930355  1.0
  P  P4621  1  0.34783019  0.16518732  0.35930355  1.0
  P  P4622  1  0.34783019  0.30804446  0.35930355  1.0
  P  P4623  1  0.34783019  0.45090160  0.35930355  1.0
  P  P4624  1  0.34783019  0.59375874  0.35930355  1.0
  P  P4625  1  0.34783019  0.73661589  0.35930355  1.0
  P  P4626  1  0.34783019  0.87947303  0.35930355  1.0
  P  P4627  1  0.45894130  0.02233017  0.35930355  1.0
  P  P4628  1  0.45894130  0.16518732  0.35930355  1.0
  P  P4629  1  0.45894130  0.30804446  0.35930355  1.0
  P  P4630  1  0.45894130  0.45090160  0.35930355  1.0
  P  P4631  1  0.45894130  0.59375874  0.35930355  1.0
  P  P4632  1  0.45894130  0.73661589  0.35930355  1.0
  P  P4633  1  0.45894130  0.87947303  0.35930355  1.0
  P  P4634  1  0.57005241  0.02233017  0.35930355  1.0
  P  P4635  1  0.57005241  0.16518732  0.35930355  1.0
  P  P4636  1  0.57005241  0.30804446  0.35930355  1.0
  P  P4637  1  0.57005241  0.45090160  0.35930355  1.0
  P  P4638  1  0.57005241  0.59375874  0.35930355  1.0
  P  P4639  1  0.57005241  0.73661589  0.35930355  1.0
  P  P4640  1  0.57005241  0.87947303  0.35930355  1.0
  P  P4641  1  0.68116352  0.02233017  0.35930355  1.0
  P  P4642  1  0.68116352  0.16518732  0.35930355  1.0
  P  P4643  1  0.68116352  0.30804446  0.35930355  1.0
  P  P4644  1  0.68116352  0.45090160  0.35930355  1.0
  P  P4645  1  0.68116352  0.59375874  0.35930355  1.0
  P  P4646  1  0.68116352  0.73661589  0.35930355  1.0
  P  P4647  1  0.68116352  0.87947303  0.35930355  1.0
  P  P4648  1  0.79227464  0.02233017  0.35930355  1.0
  P  P4649  1  0.79227464  0.16518732  0.35930355  1.0
  P  P4650  1  0.79227464  0.30804446  0.35930355  1.0
  P  P4651  1  0.79227464  0.45090160  0.35930355  1.0
  P  P4652  1  0.79227464  0.59375874  0.35930355  1.0
  P  P4653  1  0.79227464  0.73661589  0.35930355  1.0
  P  P4654  1  0.79227464  0.87947303  0.35930355  1.0
  P  P4655  1  0.90338575  0.02233017  0.35930355  1.0
  P  P4656  1  0.90338575  0.16518732  0.35930355  1.0
  P  P4657  1  0.90338575  0.30804446  0.35930355  1.0
  P  P4658  1  0.90338575  0.45090160  0.35930355  1.0
  P  P4659  1  0.90338575  0.59375874  0.35930355  1.0
  P  P4660  1  0.90338575  0.73661589  0.35930355  1.0
  P  P4661  1  0.90338575  0.87947303  0.35930355  1.0
  P  P4662  1  0.00649741  0.11177547  0.42236208  1.0
  P  P4663  1  0.00649741  0.25463261  0.42236208  1.0
  P  P4664  1  0.00649741  0.39748975  0.42236208  1.0
  P  P4665  1  0.00649741  0.54034690  0.42236208  1.0
  P  P4666  1  0.00649741  0.68320404  0.42236208  1.0
  P  P4667  1  0.00649741  0.82606118  0.42236208  1.0
  P  P4668  1  0.00649741  0.96891832  0.42236208  1.0
  P  P4669  1  0.11760852  0.11177547  0.42236208  1.0
  P  P4670  1  0.11760852  0.25463261  0.42236208  1.0
  P  P4671  1  0.11760852  0.39748975  0.42236208  1.0
  P  P4672  1  0.11760852  0.54034690  0.42236208  1.0
  P  P4673  1  0.11760852  0.68320404  0.42236208  1.0
  P  P4674  1  0.11760852  0.82606118  0.42236208  1.0
  P  P4675  1  0.11760852  0.96891832  0.42236208  1.0
  P  P4676  1  0.22871963  0.11177547  0.42236208  1.0
  P  P4677  1  0.22871963  0.25463261  0.42236208  1.0
  P  P4678  1  0.22871963  0.39748975  0.42236208  1.0
  P  P4679  1  0.22871963  0.54034690  0.42236208  1.0
  P  P4680  1  0.22871963  0.68320404  0.42236208  1.0
  P  P4681  1  0.22871963  0.82606118  0.42236208  1.0
  P  P4682  1  0.22871963  0.96891832  0.42236208  1.0
  P  P4683  1  0.33983075  0.11177547  0.42236208  1.0
  P  P4684  1  0.33983075  0.25463261  0.42236208  1.0
  P  P4685  1  0.33983075  0.39748975  0.42236208  1.0
  P  P4686  1  0.33983075  0.54034690  0.42236208  1.0
  P  P4687  1  0.33983075  0.68320404  0.42236208  1.0
  P  P4688  1  0.33983075  0.82606118  0.42236208  1.0
  P  P4689  1  0.33983075  0.96891832  0.42236208  1.0
  P  P4690  1  0.45094186  0.11177547  0.42236208  1.0
  P  P4691  1  0.45094186  0.25463261  0.42236208  1.0
  P  P4692  1  0.45094186  0.39748975  0.42236208  1.0
  P  P4693  1  0.45094186  0.54034690  0.42236208  1.0
  P  P4694  1  0.45094186  0.68320404  0.42236208  1.0
  P  P4695  1  0.45094186  0.82606118  0.42236208  1.0
  P  P4696  1  0.45094186  0.96891832  0.42236208  1.0
  P  P4697  1  0.56205297  0.11177547  0.42236208  1.0
  P  P4698  1  0.56205297  0.25463261  0.42236208  1.0
  P  P4699  1  0.56205297  0.39748975  0.42236208  1.0
  P  P4700  1  0.56205297  0.54034690  0.42236208  1.0
  P  P4701  1  0.56205297  0.68320404  0.42236208  1.0
  P  P4702  1  0.56205297  0.82606118  0.42236208  1.0
  P  P4703  1  0.56205297  0.96891832  0.42236208  1.0
  P  P4704  1  0.67316408  0.11177547  0.42236208  1.0
  P  P4705  1  0.67316408  0.25463261  0.42236208  1.0
  P  P4706  1  0.67316408  0.39748975  0.42236208  1.0
  P  P4707  1  0.67316408  0.54034690  0.42236208  1.0
  P  P4708  1  0.67316408  0.68320404  0.42236208  1.0
  P  P4709  1  0.67316408  0.82606118  0.42236208  1.0
  P  P4710  1  0.67316408  0.96891832  0.42236208  1.0
  P  P4711  1  0.78427519  0.11177547  0.42236208  1.0
  P  P4712  1  0.78427519  0.25463261  0.42236208  1.0
  P  P4713  1  0.78427519  0.39748975  0.42236208  1.0
  P  P4714  1  0.78427519  0.54034690  0.42236208  1.0
  P  P4715  1  0.78427519  0.68320404  0.42236208  1.0
  P  P4716  1  0.78427519  0.82606118  0.42236208  1.0
  P  P4717  1  0.78427519  0.96891832  0.42236208  1.0
  P  P4718  1  0.89538630  0.11177547  0.42236208  1.0
  P  P4719  1  0.89538630  0.25463261  0.42236208  1.0
  P  P4720  1  0.89538630  0.39748975  0.42236208  1.0
  P  P4721  1  0.89538630  0.54034690  0.42236208  1.0
  P  P4722  1  0.89538630  0.68320404  0.42236208  1.0
  P  P4723  1  0.89538630  0.82606118  0.42236208  1.0
  P  P4724  1  0.89538630  0.96891832  0.42236208  1.0
  P  P4725  1  0.02766143  0.12538091  0.46998113  1.0
  P  P4726  1  0.02766143  0.26823805  0.46998113  1.0
  P  P4727  1  0.02766143  0.41109520  0.46998113  1.0
  P  P4728  1  0.02766143  0.55395234  0.46998113  1.0
  P  P4729  1  0.02766143  0.69680948  0.46998113  1.0
  P  P4730  1  0.02766143  0.83966662  0.46998113  1.0
  P  P4731  1  0.02766143  0.98252377  0.46998113  1.0
  P  P4732  1  0.13877255  0.12538091  0.46998113  1.0
  P  P4733  1  0.13877255  0.26823805  0.46998113  1.0
  P  P4734  1  0.13877254  0.41109520  0.46998113  1.0
  P  P4735  1  0.13877254  0.55395234  0.46998113  1.0
  P  P4736  1  0.13877254  0.69680948  0.46998113  1.0
  P  P4737  1  0.13877254  0.83966662  0.46998113  1.0
  P  P4738  1  0.13877254  0.98252377  0.46998113  1.0
  P  P4739  1  0.24988366  0.12538091  0.46998113  1.0
  P  P4740  1  0.24988366  0.26823805  0.46998113  1.0
  P  P4741  1  0.24988366  0.41109520  0.46998113  1.0
  P  P4742  1  0.24988366  0.55395234  0.46998113  1.0
  P  P4743  1  0.24988366  0.69680948  0.46998113  1.0
  P  P4744  1  0.24988366  0.83966662  0.46998113  1.0
  P  P4745  1  0.24988366  0.98252377  0.46998113  1.0
  P  P4746  1  0.36099477  0.12538091  0.46998113  1.0
  P  P4747  1  0.36099477  0.26823805  0.46998113  1.0
  P  P4748  1  0.36099477  0.41109520  0.46998113  1.0
  P  P4749  1  0.36099477  0.55395234  0.46998113  1.0
  P  P4750  1  0.36099477  0.69680948  0.46998113  1.0
  P  P4751  1  0.36099477  0.83966662  0.46998113  1.0
  P  P4752  1  0.36099477  0.98252377  0.46998113  1.0
  P  P4753  1  0.47210588  0.12538091  0.46998113  1.0
  P  P4754  1  0.47210588  0.26823805  0.46998113  1.0
  P  P4755  1  0.47210588  0.41109520  0.46998113  1.0
  P  P4756  1  0.47210588  0.55395234  0.46998113  1.0
  P  P4757  1  0.47210588  0.69680948  0.46998113  1.0
  P  P4758  1  0.47210588  0.83966662  0.46998113  1.0
  P  P4759  1  0.47210588  0.98252377  0.46998113  1.0
  P  P4760  1  0.58321699  0.12538091  0.46998113  1.0
  P  P4761  1  0.58321699  0.26823805  0.46998113  1.0
  P  P4762  1  0.58321699  0.41109520  0.46998113  1.0
  P  P4763  1  0.58321699  0.55395234  0.46998113  1.0
  P  P4764  1  0.58321699  0.69680948  0.46998113  1.0
  P  P4765  1  0.58321699  0.83966662  0.46998113  1.0
  P  P4766  1  0.58321699  0.98252377  0.46998113  1.0
  P  P4767  1  0.69432810  0.12538091  0.46998113  1.0
  P  P4768  1  0.69432810  0.26823805  0.46998113  1.0
  P  P4769  1  0.69432810  0.41109520  0.46998113  1.0
  P  P4770  1  0.69432810  0.55395234  0.46998113  1.0
  P  P4771  1  0.69432810  0.69680948  0.46998113  1.0
  P  P4772  1  0.69432810  0.83966662  0.46998113  1.0
  P  P4773  1  0.69432810  0.98252377  0.46998113  1.0
  P  P4774  1  0.80543921  0.12538091  0.46998113  1.0
  P  P4775  1  0.80543921  0.26823805  0.46998113  1.0
  P  P4776  1  0.80543921  0.41109520  0.46998113  1.0
  P  P4777  1  0.80543921  0.55395234  0.46998113  1.0
  P  P4778  1  0.80543921  0.69680948  0.46998113  1.0
  P  P4779  1  0.80543921  0.83966662  0.46998113  1.0
  P  P4780  1  0.80543921  0.98252377  0.46998113  1.0
  P  P4781  1  0.91655032  0.12538091  0.46998113  1.0
  P  P4782  1  0.91655032  0.26823805  0.46998113  1.0
  P  P4783  1  0.91655032  0.41109520  0.46998113  1.0
  P  P4784  1  0.91655032  0.55395234  0.46998113  1.0
  P  P4785  1  0.91655032  0.69680948  0.46998113  1.0
  P  P4786  1  0.91655032  0.83966662  0.46998113  1.0
  P  P4787  1  0.91655032  0.98252377  0.46998113  1.0
  P  P4788  1  0.09644450  0.09817003  0.37474303  1.0
  P  P4789  1  0.09644450  0.24102717  0.37474303  1.0
  P  P4790  1  0.09644450  0.38388431  0.37474303  1.0
  P  P4791  1  0.09644450  0.52674145  0.37474303  1.0
  P  P4792  1  0.09644450  0.66959860  0.37474303  1.0
  P  P4793  1  0.09644450  0.81245574  0.37474303  1.0
  P  P4794  1  0.09644450  0.95531288  0.37474303  1.0
  P  P4795  1  0.20755561  0.09817003  0.37474303  1.0
  P  P4796  1  0.20755561  0.24102717  0.37474303  1.0
  P  P4797  1  0.20755561  0.38388431  0.37474303  1.0
  P  P4798  1  0.20755561  0.52674145  0.37474303  1.0
  P  P4799  1  0.20755561  0.66959860  0.37474303  1.0
  P  P4800  1  0.20755561  0.81245574  0.37474303  1.0
  P  P4801  1  0.20755561  0.95531288  0.37474303  1.0
  P  P4802  1  0.31866672  0.09817003  0.37474303  1.0
  P  P4803  1  0.31866672  0.24102717  0.37474303  1.0
  P  P4804  1  0.31866672  0.38388431  0.37474303  1.0
  P  P4805  1  0.31866672  0.52674145  0.37474303  1.0
  P  P4806  1  0.31866672  0.66959860  0.37474303  1.0
  P  P4807  1  0.31866672  0.81245574  0.37474303  1.0
  P  P4808  1  0.31866672  0.95531288  0.37474303  1.0
  P  P4809  1  0.42977784  0.09817003  0.37474303  1.0
  P  P4810  1  0.42977784  0.24102717  0.37474303  1.0
  P  P4811  1  0.42977784  0.38388431  0.37474303  1.0
  P  P4812  1  0.42977784  0.52674145  0.37474303  1.0
  P  P4813  1  0.42977784  0.66959860  0.37474303  1.0
  P  P4814  1  0.42977784  0.81245574  0.37474303  1.0
  P  P4815  1  0.42977784  0.95531288  0.37474303  1.0
  P  P4816  1  0.54088895  0.09817003  0.37474303  1.0
  P  P4817  1  0.54088895  0.24102717  0.37474303  1.0
  P  P4818  1  0.54088895  0.38388431  0.37474303  1.0
  P  P4819  1  0.54088895  0.52674145  0.37474303  1.0
  P  P4820  1  0.54088895  0.66959860  0.37474303  1.0
  P  P4821  1  0.54088895  0.81245574  0.37474303  1.0
  P  P4822  1  0.54088895  0.95531288  0.37474303  1.0
  P  P4823  1  0.65200006  0.09817003  0.37474303  1.0
  P  P4824  1  0.65200006  0.24102717  0.37474303  1.0
  P  P4825  1  0.65200006  0.38388431  0.37474303  1.0
  P  P4826  1  0.65200006  0.52674145  0.37474303  1.0
  P  P4827  1  0.65200006  0.66959860  0.37474303  1.0
  P  P4828  1  0.65200006  0.81245574  0.37474303  1.0
  P  P4829  1  0.65200006  0.95531288  0.37474303  1.0
  P  P4830  1  0.76311117  0.09817003  0.37474303  1.0
  P  P4831  1  0.76311117  0.24102717  0.37474303  1.0
  P  P4832  1  0.76311117  0.38388431  0.37474303  1.0
  P  P4833  1  0.76311117  0.52674145  0.37474303  1.0
  P  P4834  1  0.76311117  0.66959860  0.37474303  1.0
  P  P4835  1  0.76311117  0.81245574  0.37474303  1.0
  P  P4836  1  0.76311117  0.95531288  0.37474303  1.0
  P  P4837  1  0.87422228  0.09817003  0.37474303  1.0
  P  P4838  1  0.87422228  0.24102717  0.37474303  1.0
  P  P4839  1  0.87422228  0.38388431  0.37474303  1.0
  P  P4840  1  0.87422228  0.52674145  0.37474303  1.0
  P  P4841  1  0.87422228  0.66959860  0.37474303  1.0
  P  P4842  1  0.87422228  0.81245574  0.37474303  1.0
  P  P4843  1  0.87422228  0.95531288  0.37474303  1.0
  P  P4844  1  0.98533339  0.09817003  0.37474303  1.0
  P  P4845  1  0.98533339  0.24102717  0.37474303  1.0
  P  P4846  1  0.98533339  0.38388431  0.37474303  1.0
  P  P4847  1  0.98533339  0.52674145  0.37474303  1.0
  P  P4848  1  0.98533339  0.66959860  0.37474303  1.0
  P  P4849  1  0.98533339  0.81245574  0.37474303  1.0
  P  P4850  1  0.98533339  0.95531288  0.37474303  1.0
  P  P4851  1  0.08541854  0.14277277  0.39387733  1.0
  P  P4852  1  0.08541854  0.28562991  0.39387733  1.0
  P  P4853  1  0.08541854  0.42848705  0.39387733  1.0
  P  P4854  1  0.08541854  0.57134419  0.39387733  1.0
  P  P4855  1  0.08541854  0.71420134  0.39387733  1.0
  P  P4856  1  0.08541854  0.85705848  0.39387733  1.0
  P  P4857  1  0.08541854  0.99991562  0.39387733  1.0
  P  P4858  1  0.19652965  0.14277277  0.39387733  1.0
  P  P4859  1  0.19652965  0.28562991  0.39387733  1.0
  P  P4860  1  0.19652965  0.42848705  0.39387733  1.0
  P  P4861  1  0.19652965  0.57134419  0.39387733  1.0
  P  P4862  1  0.19652965  0.71420134  0.39387733  1.0
  P  P4863  1  0.19652965  0.85705848  0.39387733  1.0
  P  P4864  1  0.19652965  0.99991562  0.39387733  1.0
  P  P4865  1  0.30764076  0.14277277  0.39387733  1.0
  P  P4866  1  0.30764076  0.28562991  0.39387733  1.0
  P  P4867  1  0.30764076  0.42848705  0.39387733  1.0
  P  P4868  1  0.30764076  0.57134419  0.39387733  1.0
  P  P4869  1  0.30764076  0.71420134  0.39387733  1.0
  P  P4870  1  0.30764076  0.85705848  0.39387733  1.0
  P  P4871  1  0.30764076  0.99991562  0.39387733  1.0
  P  P4872  1  0.41875187  0.14277277  0.39387733  1.0
  P  P4873  1  0.41875187  0.28562991  0.39387733  1.0
  P  P4874  1  0.41875187  0.42848705  0.39387733  1.0
  P  P4875  1  0.41875187  0.57134419  0.39387733  1.0
  P  P4876  1  0.41875187  0.71420134  0.39387733  1.0
  P  P4877  1  0.41875187  0.85705848  0.39387733  1.0
  P  P4878  1  0.41875187  0.99991562  0.39387733  1.0
  P  P4879  1  0.52986298  0.14277277  0.39387733  1.0
  P  P4880  1  0.52986298  0.28562991  0.39387733  1.0
  P  P4881  1  0.52986298  0.42848705  0.39387733  1.0
  P  P4882  1  0.52986298  0.57134419  0.39387733  1.0
  P  P4883  1  0.52986298  0.71420134  0.39387733  1.0
  P  P4884  1  0.52986298  0.85705848  0.39387733  1.0
  P  P4885  1  0.52986298  0.99991562  0.39387733  1.0
  P  P4886  1  0.64097409  0.14277277  0.39387733  1.0
  P  P4887  1  0.64097409  0.28562991  0.39387733  1.0
  P  P4888  1  0.64097409  0.42848705  0.39387733  1.0
  P  P4889  1  0.64097409  0.57134419  0.39387733  1.0
  P  P4890  1  0.64097409  0.71420134  0.39387733  1.0
  P  P4891  1  0.64097409  0.85705848  0.39387733  1.0
  P  P4892  1  0.64097409  0.99991562  0.39387733  1.0
  P  P4893  1  0.75208520  0.14277277  0.39387733  1.0
  P  P4894  1  0.75208520  0.28562991  0.39387733  1.0
  P  P4895  1  0.75208520  0.42848705  0.39387733  1.0
  P  P4896  1  0.75208520  0.57134419  0.39387733  1.0
  P  P4897  1  0.75208520  0.71420134  0.39387733  1.0
  P  P4898  1  0.75208520  0.85705848  0.39387733  1.0
  P  P4899  1  0.75208520  0.99991562  0.39387733  1.0
  P  P4900  1  0.86319632  0.14277277  0.39387733  1.0
  P  P4901  1  0.86319632  0.28562991  0.39387733  1.0
  P  P4902  1  0.86319632  0.42848705  0.39387733  1.0
  P  P4903  1  0.86319632  0.57134419  0.39387733  1.0
  P  P4904  1  0.86319632  0.71420134  0.39387733  1.0
  P  P4905  1  0.86319632  0.85705848  0.39387733  1.0
  P  P4906  1  0.86319632  0.99991562  0.39387733  1.0
  P  P4907  1  0.97430743  0.14277277  0.39387733  1.0
  P  P4908  1  0.97430743  0.28562991  0.39387733  1.0
  P  P4909  1  0.97430743  0.42848705  0.39387733  1.0
  P  P4910  1  0.97430743  0.57134419  0.39387733  1.0
  P  P4911  1  0.97430743  0.71420134  0.39387733  1.0
  P  P4912  1  0.97430743  0.85705848  0.39387733  1.0
  P  P4913  1  0.97430743  0.99991562  0.39387733  1.0
  P  P4914  1  0.10658256  0.01352106  0.44149638  1.0
  P  P4915  1  0.10658256  0.15637821  0.44149638  1.0
  P  P4916  1  0.10658256  0.29923535  0.44149638  1.0
  P  P4917  1  0.10658256  0.44209249  0.44149638  1.0
  P  P4918  1  0.10658256  0.58494964  0.44149638  1.0
  P  P4919  1  0.10658256  0.72780678  0.44149638  1.0
  P  P4920  1  0.10658256  0.87066392  0.44149638  1.0
  P  P4921  1  0.21769367  0.01352106  0.44149638  1.0
  P  P4922  1  0.21769367  0.15637821  0.44149638  1.0
  P  P4923  1  0.21769367  0.29923535  0.44149638  1.0
  P  P4924  1  0.21769367  0.44209249  0.44149638  1.0
  P  P4925  1  0.21769367  0.58494964  0.44149638  1.0
  P  P4926  1  0.21769367  0.72780678  0.44149638  1.0
  P  P4927  1  0.21769367  0.87066392  0.44149638  1.0
  P  P4928  1  0.32880478  0.01352106  0.44149638  1.0
  P  P4929  1  0.32880478  0.15637821  0.44149638  1.0
  P  P4930  1  0.32880478  0.29923535  0.44149638  1.0
  P  P4931  1  0.32880478  0.44209249  0.44149638  1.0
  P  P4932  1  0.32880478  0.58494964  0.44149638  1.0
  P  P4933  1  0.32880478  0.72780678  0.44149638  1.0
  P  P4934  1  0.32880478  0.87066392  0.44149638  1.0
  P  P4935  1  0.43991589  0.01352106  0.44149638  1.0
  P  P4936  1  0.43991589  0.15637821  0.44149638  1.0
  P  P4937  1  0.43991589  0.29923535  0.44149638  1.0
  P  P4938  1  0.43991589  0.44209249  0.44149638  1.0
  P  P4939  1  0.43991589  0.58494964  0.44149638  1.0
  P  P4940  1  0.43991589  0.72780678  0.44149638  1.0
  P  P4941  1  0.43991589  0.87066392  0.44149638  1.0
  P  P4942  1  0.55102700  0.01352106  0.44149638  1.0
  P  P4943  1  0.55102700  0.15637821  0.44149638  1.0
  P  P4944  1  0.55102700  0.29923535  0.44149638  1.0
  P  P4945  1  0.55102700  0.44209249  0.44149638  1.0
  P  P4946  1  0.55102700  0.58494964  0.44149638  1.0
  P  P4947  1  0.55102700  0.72780678  0.44149638  1.0
  P  P4948  1  0.55102700  0.87066392  0.44149638  1.0
  P  P4949  1  0.66213811  0.01352106  0.44149638  1.0
  P  P4950  1  0.66213811  0.15637821  0.44149638  1.0
  P  P4951  1  0.66213811  0.29923535  0.44149638  1.0
  P  P4952  1  0.66213811  0.44209249  0.44149638  1.0
  P  P4953  1  0.66213811  0.58494964  0.44149638  1.0
  P  P4954  1  0.66213811  0.72780678  0.44149638  1.0
  P  P4955  1  0.66213811  0.87066392  0.44149638  1.0
  P  P4956  1  0.77324923  0.01352106  0.44149638  1.0
  P  P4957  1  0.77324923  0.15637821  0.44149638  1.0
  P  P4958  1  0.77324923  0.29923535  0.44149638  1.0
  P  P4959  1  0.77324923  0.44209249  0.44149638  1.0
  P  P4960  1  0.77324923  0.58494964  0.44149638  1.0
  P  P4961  1  0.77324923  0.72780678  0.44149638  1.0
  P  P4962  1  0.77324923  0.87066392  0.44149638  1.0
  P  P4963  1  0.88436034  0.01352106  0.44149638  1.0
  P  P4964  1  0.88436034  0.15637821  0.44149638  1.0
  P  P4965  1  0.88436034  0.29923535  0.44149638  1.0
  P  P4966  1  0.88436034  0.44209249  0.44149638  1.0
  P  P4967  1  0.88436034  0.58494964  0.44149638  1.0
  P  P4968  1  0.88436034  0.72780678  0.44149638  1.0
  P  P4969  1  0.88436034  0.87066392  0.44149638  1.0
  P  P4970  1  0.99547145  0.01352106  0.44149638  1.0
  P  P4971  1  0.99547145  0.15637821  0.44149638  1.0
  P  P4972  1  0.99547145  0.29923535  0.44149638  1.0
  P  P4973  1  0.99547145  0.44209249  0.44149638  1.0
  P  P4974  1  0.99547145  0.58494964  0.44149638  1.0
  P  P4975  1  0.99547145  0.72780678  0.44149638  1.0
  P  P4976  1  0.99547145  0.87066392  0.44149638  1.0
  P  P4977  1  0.01663547  0.02712651  0.48911543  1.0
  P  P4978  1  0.01663547  0.16998365  0.48911543  1.0
  P  P4979  1  0.01663547  0.31284079  0.48911543  1.0
  P  P4980  1  0.01663547  0.45569794  0.48911543  1.0
  P  P4981  1  0.01663547  0.59855508  0.48911543  1.0
  P  P4982  1  0.01663547  0.74141222  0.48911543  1.0
  P  P4983  1  0.01663547  0.88426936  0.48911543  1.0
  P  P4984  1  0.12774658  0.02712651  0.48911543  1.0
  P  P4985  1  0.12774658  0.16998365  0.48911543  1.0
  P  P4986  1  0.12774658  0.31284079  0.48911543  1.0
  P  P4987  1  0.12774658  0.45569794  0.48911543  1.0
  P  P4988  1  0.12774658  0.59855508  0.48911543  1.0
  P  P4989  1  0.12774658  0.74141222  0.48911543  1.0
  P  P4990  1  0.12774658  0.88426936  0.48911543  1.0
  P  P4991  1  0.23885769  0.02712651  0.48911543  1.0
  P  P4992  1  0.23885769  0.16998365  0.48911543  1.0
  P  P4993  1  0.23885769  0.31284079  0.48911543  1.0
  P  P4994  1  0.23885769  0.45569794  0.48911543  1.0
  P  P4995  1  0.23885769  0.59855508  0.48911543  1.0
  P  P4996  1  0.23885769  0.74141222  0.48911543  1.0
  P  P4997  1  0.23885769  0.88426936  0.48911543  1.0
  P  P4998  1  0.34996880  0.02712651  0.48911543  1.0
  P  P4999  1  0.34996880  0.16998365  0.48911543  1.0
  P  P5000  1  0.34996880  0.31284079  0.48911543  1.0
  P  P5001  1  0.34996880  0.45569794  0.48911543  1.0
  P  P5002  1  0.34996880  0.59855508  0.48911543  1.0
  P  P5003  1  0.34996880  0.74141222  0.48911543  1.0
  P  P5004  1  0.34996880  0.88426936  0.48911543  1.0
  P  P5005  1  0.46107991  0.02712651  0.48911543  1.0
  P  P5006  1  0.46107991  0.16998365  0.48911543  1.0
  P  P5007  1  0.46107991  0.31284079  0.48911543  1.0
  P  P5008  1  0.46107991  0.45569794  0.48911543  1.0
  P  P5009  1  0.46107991  0.59855508  0.48911543  1.0
  P  P5010  1  0.46107991  0.74141222  0.48911543  1.0
  P  P5011  1  0.46107991  0.88426936  0.48911543  1.0
  P  P5012  1  0.57219103  0.02712651  0.48911543  1.0
  P  P5013  1  0.57219103  0.16998365  0.48911543  1.0
  P  P5014  1  0.57219103  0.31284079  0.48911543  1.0
  P  P5015  1  0.57219103  0.45569794  0.48911543  1.0
  P  P5016  1  0.57219103  0.59855508  0.48911543  1.0
  P  P5017  1  0.57219103  0.74141222  0.48911543  1.0
  P  P5018  1  0.57219103  0.88426936  0.48911543  1.0
  P  P5019  1  0.68330214  0.02712651  0.48911543  1.0
  P  P5020  1  0.68330214  0.16998365  0.48911543  1.0
  P  P5021  1  0.68330214  0.31284079  0.48911543  1.0
  P  P5022  1  0.68330214  0.45569794  0.48911543  1.0
  P  P5023  1  0.68330214  0.59855508  0.48911543  1.0
  P  P5024  1  0.68330214  0.74141222  0.48911543  1.0
  P  P5025  1  0.68330214  0.88426936  0.48911543  1.0
  P  P5026  1  0.79441325  0.02712651  0.48911543  1.0
  P  P5027  1  0.79441325  0.16998365  0.48911543  1.0
  P  P5028  1  0.79441325  0.31284079  0.48911543  1.0
  P  P5029  1  0.79441325  0.45569794  0.48911543  1.0
  P  P5030  1  0.79441325  0.59855508  0.48911543  1.0
  P  P5031  1  0.79441325  0.74141222  0.48911543  1.0
  P  P5032  1  0.79441325  0.88426936  0.48911543  1.0
  P  P5033  1  0.90552436  0.02712651  0.48911543  1.0
  P  P5034  1  0.90552436  0.16998365  0.48911543  1.0
  P  P5035  1  0.90552436  0.31284079  0.48911543  1.0
  P  P5036  1  0.90552436  0.45569794  0.48911543  1.0
  P  P5037  1  0.90552436  0.59855508  0.48911543  1.0
  P  P5038  1  0.90552436  0.74141222  0.48911543  1.0
  P  P5039  1  0.90552436  0.88426936  0.48911543  1.0
  P  P5040  1  0.09514709  0.06600763  0.42386393  1.0
  P  P5041  1  0.09514709  0.20886478  0.42386393  1.0
  P  P5042  1  0.09514709  0.35172192  0.42386393  1.0
  P  P5043  1  0.09514709  0.49457906  0.42386393  1.0
  P  P5044  1  0.09514709  0.63743620  0.42386393  1.0
  P  P5045  1  0.09514709  0.78029335  0.42386393  1.0
  P  P5046  1  0.09514709  0.92315049  0.42386393  1.0
  P  P5047  1  0.20625820  0.06600763  0.42386393  1.0
  P  P5048  1  0.20625820  0.20886478  0.42386393  1.0
  P  P5049  1  0.20625820  0.35172192  0.42386393  1.0
  P  P5050  1  0.20625820  0.49457906  0.42386393  1.0
  P  P5051  1  0.20625820  0.63743620  0.42386393  1.0
  P  P5052  1  0.20625820  0.78029335  0.42386393  1.0
  P  P5053  1  0.20625820  0.92315049  0.42386393  1.0
  P  P5054  1  0.31736931  0.06600763  0.42386393  1.0
  P  P5055  1  0.31736931  0.20886478  0.42386393  1.0
  P  P5056  1  0.31736931  0.35172192  0.42386393  1.0
  P  P5057  1  0.31736931  0.49457906  0.42386393  1.0
  P  P5058  1  0.31736931  0.63743620  0.42386393  1.0
  P  P5059  1  0.31736931  0.78029335  0.42386393  1.0
  P  P5060  1  0.31736931  0.92315049  0.42386393  1.0
  P  P5061  1  0.42848042  0.06600763  0.42386393  1.0
  P  P5062  1  0.42848042  0.20886478  0.42386393  1.0
  P  P5063  1  0.42848042  0.35172192  0.42386393  1.0
  P  P5064  1  0.42848042  0.49457906  0.42386393  1.0
  P  P5065  1  0.42848042  0.63743620  0.42386393  1.0
  P  P5066  1  0.42848042  0.78029335  0.42386393  1.0
  P  P5067  1  0.42848042  0.92315049  0.42386393  1.0
  P  P5068  1  0.53959153  0.06600763  0.42386393  1.0
  P  P5069  1  0.53959153  0.20886478  0.42386393  1.0
  P  P5070  1  0.53959153  0.35172192  0.42386393  1.0
  P  P5071  1  0.53959153  0.49457906  0.42386393  1.0
  P  P5072  1  0.53959153  0.63743620  0.42386393  1.0
  P  P5073  1  0.53959153  0.78029335  0.42386393  1.0
  P  P5074  1  0.53959153  0.92315049  0.42386393  1.0
  P  P5075  1  0.65070264  0.06600763  0.42386393  1.0
  P  P5076  1  0.65070264  0.20886478  0.42386393  1.0
  P  P5077  1  0.65070264  0.35172192  0.42386393  1.0
  P  P5078  1  0.65070264  0.49457906  0.42386393  1.0
  P  P5079  1  0.65070264  0.63743620  0.42386393  1.0
  P  P5080  1  0.65070264  0.78029335  0.42386393  1.0
  P  P5081  1  0.65070264  0.92315049  0.42386393  1.0
  P  P5082  1  0.76181375  0.06600763  0.42386393  1.0
  P  P5083  1  0.76181375  0.20886478  0.42386393  1.0
  P  P5084  1  0.76181375  0.35172192  0.42386393  1.0
  P  P5085  1  0.76181375  0.49457906  0.42386393  1.0
  P  P5086  1  0.76181375  0.63743620  0.42386393  1.0
  P  P5087  1  0.76181375  0.78029335  0.42386393  1.0
  P  P5088  1  0.76181375  0.92315049  0.42386393  1.0
  P  P5089  1  0.87292487  0.06600763  0.42386393  1.0
  P  P5090  1  0.87292487  0.20886478  0.42386393  1.0
  P  P5091  1  0.87292487  0.35172192  0.42386393  1.0
  P  P5092  1  0.87292487  0.49457906  0.42386393  1.0
  P  P5093  1  0.87292487  0.63743620  0.42386393  1.0
  P  P5094  1  0.87292487  0.78029335  0.42386393  1.0
  P  P5095  1  0.87292487  0.92315049  0.42386393  1.0
  P  P5096  1  0.98403598  0.06600763  0.42386393  1.0
  P  P5097  1  0.98403598  0.20886478  0.42386393  1.0
  P  P5098  1  0.98403598  0.35172192  0.42386393  1.0
  P  P5099  1  0.98403598  0.49457906  0.42386393  1.0
  P  P5100  1  0.98403598  0.63743620  0.42386393  1.0
  P  P5101  1  0.98403598  0.78029335  0.42386393  1.0
  P  P5102  1  0.98403598  0.92315049  0.42386393  1.0
  P  P5103  1  0.00520000  0.07961308  0.47148298  1.0
  P  P5104  1  0.00520000  0.22247022  0.47148298  1.0
  P  P5105  1  0.00520000  0.36532736  0.47148298  1.0
  P  P5106  1  0.00520000  0.50818450  0.47148298  1.0
  P  P5107  1  0.00520000  0.65104165  0.47148298  1.0
  P  P5108  1  0.00520000  0.79389879  0.47148298  1.0
  P  P5109  1  0.00520000  0.93675593  0.47148298  1.0
  P  P5110  1  0.11631111  0.07961308  0.47148298  1.0
  P  P5111  1  0.11631111  0.22247022  0.47148298  1.0
  P  P5112  1  0.11631111  0.36532736  0.47148298  1.0
  P  P5113  1  0.11631111  0.50818450  0.47148298  1.0
  P  P5114  1  0.11631111  0.65104165  0.47148298  1.0
  P  P5115  1  0.11631111  0.79389879  0.47148298  1.0
  P  P5116  1  0.11631111  0.93675593  0.47148298  1.0
  P  P5117  1  0.22742222  0.07961308  0.47148298  1.0
  P  P5118  1  0.22742222  0.22247022  0.47148298  1.0
  P  P5119  1  0.22742222  0.36532736  0.47148298  1.0
  P  P5120  1  0.22742222  0.50818450  0.47148298  1.0
  P  P5121  1  0.22742222  0.65104165  0.47148298  1.0
  P  P5122  1  0.22742222  0.79389879  0.47148298  1.0
  P  P5123  1  0.22742222  0.93675593  0.47148298  1.0
  P  P5124  1  0.33853333  0.07961308  0.47148298  1.0
  P  P5125  1  0.33853333  0.22247022  0.47148298  1.0
  P  P5126  1  0.33853333  0.36532736  0.47148298  1.0
  P  P5127  1  0.33853333  0.50818450  0.47148298  1.0
  P  P5128  1  0.33853333  0.65104165  0.47148298  1.0
  P  P5129  1  0.33853333  0.79389879  0.47148298  1.0
  P  P5130  1  0.33853333  0.93675593  0.47148298  1.0
  P  P5131  1  0.44964444  0.07961308  0.47148298  1.0
  P  P5132  1  0.44964444  0.22247022  0.47148298  1.0
  P  P5133  1  0.44964444  0.36532736  0.47148298  1.0
  P  P5134  1  0.44964444  0.50818450  0.47148298  1.0
  P  P5135  1  0.44964444  0.65104165  0.47148298  1.0
  P  P5136  1  0.44964444  0.79389879  0.47148298  1.0
  P  P5137  1  0.44964444  0.93675593  0.47148298  1.0
  P  P5138  1  0.56075555  0.07961308  0.47148298  1.0
  P  P5139  1  0.56075555  0.22247022  0.47148298  1.0
  P  P5140  1  0.56075555  0.36532736  0.47148298  1.0
  P  P5141  1  0.56075555  0.50818450  0.47148298  1.0
  P  P5142  1  0.56075555  0.65104165  0.47148298  1.0
  P  P5143  1  0.56075555  0.79389879  0.47148298  1.0
  P  P5144  1  0.56075555  0.93675593  0.47148298  1.0
  P  P5145  1  0.67186666  0.07961308  0.47148298  1.0
  P  P5146  1  0.67186666  0.22247022  0.47148298  1.0
  P  P5147  1  0.67186666  0.36532736  0.47148298  1.0
  P  P5148  1  0.67186666  0.50818450  0.47148298  1.0
  P  P5149  1  0.67186666  0.65104165  0.47148298  1.0
  P  P5150  1  0.67186666  0.79389879  0.47148298  1.0
  P  P5151  1  0.67186666  0.93675593  0.47148298  1.0
  P  P5152  1  0.78297778  0.07961308  0.47148298  1.0
  P  P5153  1  0.78297778  0.22247022  0.47148298  1.0
  P  P5154  1  0.78297778  0.36532736  0.47148298  1.0
  P  P5155  1  0.78297778  0.50818450  0.47148298  1.0
  P  P5156  1  0.78297778  0.65104165  0.47148298  1.0
  P  P5157  1  0.78297778  0.79389879  0.47148298  1.0
  P  P5158  1  0.78297778  0.93675593  0.47148298  1.0
  P  P5159  1  0.89408889  0.07961308  0.47148298  1.0
  P  P5160  1  0.89408889  0.22247022  0.47148298  1.0
  P  P5161  1  0.89408889  0.36532736  0.47148298  1.0
  P  P5162  1  0.89408889  0.50818450  0.47148298  1.0
  P  P5163  1  0.89408889  0.65104165  0.47148298  1.0
  P  P5164  1  0.89408889  0.79389879  0.47148298  1.0
  P  P5165  1  0.89408889  0.93675593  0.47148298  1.0
  P  P5166  1  0.07398307  0.05240219  0.37624488  1.0
  P  P5167  1  0.07398307  0.19525933  0.37624488  1.0
  P  P5168  1  0.07398307  0.33811648  0.37624488  1.0
  P  P5169  1  0.07398307  0.48097362  0.37624488  1.0
  P  P5170  1  0.07398307  0.62383076  0.37624488  1.0
  P  P5171  1  0.07398307  0.76668791  0.37624488  1.0
  P  P5172  1  0.07398307  0.90954505  0.37624488  1.0
  P  P5173  1  0.18509418  0.05240219  0.37624488  1.0
  P  P5174  1  0.18509418  0.19525933  0.37624488  1.0
  P  P5175  1  0.18509418  0.33811648  0.37624488  1.0
  P  P5176  1  0.18509418  0.48097362  0.37624488  1.0
  P  P5177  1  0.18509418  0.62383076  0.37624488  1.0
  P  P5178  1  0.18509418  0.76668791  0.37624488  1.0
  P  P5179  1  0.18509418  0.90954505  0.37624488  1.0
  P  P5180  1  0.29620529  0.05240219  0.37624488  1.0
  P  P5181  1  0.29620529  0.19525933  0.37624488  1.0
  P  P5182  1  0.29620529  0.33811648  0.37624488  1.0
  P  P5183  1  0.29620529  0.48097362  0.37624488  1.0
  P  P5184  1  0.29620529  0.62383076  0.37624488  1.0
  P  P5185  1  0.29620529  0.76668791  0.37624488  1.0
  P  P5186  1  0.29620529  0.90954505  0.37624488  1.0
  P  P5187  1  0.40731640  0.05240219  0.37624488  1.0
  P  P5188  1  0.40731640  0.19525933  0.37624488  1.0
  P  P5189  1  0.40731640  0.33811648  0.37624488  1.0
  P  P5190  1  0.40731640  0.48097362  0.37624488  1.0
  P  P5191  1  0.40731640  0.62383076  0.37624488  1.0
  P  P5192  1  0.40731640  0.76668791  0.37624488  1.0
  P  P5193  1  0.40731640  0.90954505  0.37624488  1.0
  P  P5194  1  0.51842751  0.05240219  0.37624488  1.0
  P  P5195  1  0.51842751  0.19525933  0.37624488  1.0
  P  P5196  1  0.51842751  0.33811648  0.37624488  1.0
  P  P5197  1  0.51842751  0.48097362  0.37624488  1.0
  P  P5198  1  0.51842751  0.62383076  0.37624488  1.0
  P  P5199  1  0.51842751  0.76668791  0.37624488  1.0
  P  P5200  1  0.51842751  0.90954505  0.37624488  1.0
  P  P5201  1  0.62953862  0.05240219  0.37624488  1.0
  P  P5202  1  0.62953862  0.19525933  0.37624488  1.0
  P  P5203  1  0.62953862  0.33811648  0.37624488  1.0
  P  P5204  1  0.62953862  0.48097362  0.37624488  1.0
  P  P5205  1  0.62953862  0.62383076  0.37624488  1.0
  P  P5206  1  0.62953862  0.76668791  0.37624488  1.0
  P  P5207  1  0.62953862  0.90954505  0.37624488  1.0
  P  P5208  1  0.74064973  0.05240219  0.37624488  1.0
  P  P5209  1  0.74064973  0.19525933  0.37624488  1.0
  P  P5210  1  0.74064973  0.33811648  0.37624488  1.0
  P  P5211  1  0.74064973  0.48097362  0.37624488  1.0
  P  P5212  1  0.74064973  0.62383076  0.37624488  1.0
  P  P5213  1  0.74064973  0.76668791  0.37624488  1.0
  P  P5214  1  0.74064973  0.90954505  0.37624488  1.0
  P  P5215  1  0.85176084  0.05240219  0.37624488  1.0
  P  P5216  1  0.85176084  0.19525933  0.37624488  1.0
  P  P5217  1  0.85176084  0.33811648  0.37624488  1.0
  P  P5218  1  0.85176084  0.48097362  0.37624488  1.0
  P  P5219  1  0.85176084  0.62383076  0.37624488  1.0
  P  P5220  1  0.85176084  0.76668791  0.37624488  1.0
  P  P5221  1  0.85176084  0.90954505  0.37624488  1.0
  P  P5222  1  0.96287196  0.05240219  0.37624488  1.0
  P  P5223  1  0.96287196  0.19525933  0.37624488  1.0
  P  P5224  1  0.96287196  0.33811648  0.37624488  1.0
  P  P5225  1  0.96287196  0.48097362  0.37624488  1.0
  P  P5226  1  0.96287196  0.62383076  0.37624488  1.0
  P  P5227  1  0.96287196  0.76668791  0.37624488  1.0
  P  P5228  1  0.96287196  0.90954505  0.37624488  1.0
  P  P5229  1  0.10787997  0.04568346  0.39237548  1.0
  P  P5230  1  0.10787997  0.18854060  0.39237548  1.0
  P  P5231  1  0.10787997  0.33139774  0.39237548  1.0
  P  P5232  1  0.10787997  0.47425488  0.39237548  1.0
  P  P5233  1  0.10787997  0.61711203  0.39237548  1.0
  P  P5234  1  0.10787997  0.75996917  0.39237548  1.0
  P  P5235  1  0.10787997  0.90282631  0.39237548  1.0
  P  P5236  1  0.21899109  0.04568346  0.39237548  1.0
  P  P5237  1  0.21899109  0.18854060  0.39237548  1.0
  P  P5238  1  0.21899109  0.33139774  0.39237548  1.0
  P  P5239  1  0.21899109  0.47425488  0.39237548  1.0
  P  P5240  1  0.21899109  0.61711203  0.39237548  1.0
  P  P5241  1  0.21899109  0.75996917  0.39237548  1.0
  P  P5242  1  0.21899109  0.90282631  0.39237548  1.0
  P  P5243  1  0.33010220  0.04568346  0.39237548  1.0
  P  P5244  1  0.33010220  0.18854060  0.39237548  1.0
  P  P5245  1  0.33010220  0.33139774  0.39237548  1.0
  P  P5246  1  0.33010220  0.47425488  0.39237548  1.0
  P  P5247  1  0.33010220  0.61711203  0.39237548  1.0
  P  P5248  1  0.33010220  0.75996917  0.39237548  1.0
  P  P5249  1  0.33010220  0.90282631  0.39237548  1.0
  P  P5250  1  0.44121331  0.04568346  0.39237548  1.0
  P  P5251  1  0.44121331  0.18854060  0.39237548  1.0
  P  P5252  1  0.44121331  0.33139774  0.39237548  1.0
  P  P5253  1  0.44121331  0.47425488  0.39237548  1.0
  P  P5254  1  0.44121331  0.61711203  0.39237548  1.0
  P  P5255  1  0.44121331  0.75996917  0.39237548  1.0
  P  P5256  1  0.44121331  0.90282631  0.39237548  1.0
  P  P5257  1  0.55232442  0.04568346  0.39237548  1.0
  P  P5258  1  0.55232442  0.18854060  0.39237548  1.0
  P  P5259  1  0.55232442  0.33139774  0.39237548  1.0
  P  P5260  1  0.55232442  0.47425488  0.39237548  1.0
  P  P5261  1  0.55232442  0.61711203  0.39237548  1.0
  P  P5262  1  0.55232442  0.75996917  0.39237548  1.0
  P  P5263  1  0.55232442  0.90282631  0.39237548  1.0
  P  P5264  1  0.66343553  0.04568346  0.39237548  1.0
  P  P5265  1  0.66343553  0.18854060  0.39237548  1.0
  P  P5266  1  0.66343553  0.33139774  0.39237548  1.0
  P  P5267  1  0.66343553  0.47425488  0.39237548  1.0
  P  P5268  1  0.66343553  0.61711203  0.39237548  1.0
  P  P5269  1  0.66343553  0.75996917  0.39237548  1.0
  P  P5270  1  0.66343553  0.90282631  0.39237548  1.0
  P  P5271  1  0.77454664  0.04568346  0.39237548  1.0
  P  P5272  1  0.77454664  0.18854060  0.39237548  1.0
  P  P5273  1  0.77454664  0.33139774  0.39237548  1.0
  P  P5274  1  0.77454664  0.47425488  0.39237548  1.0
  P  P5275  1  0.77454664  0.61711203  0.39237548  1.0
  P  P5276  1  0.77454664  0.75996917  0.39237548  1.0
  P  P5277  1  0.77454664  0.90282631  0.39237548  1.0
  P  P5278  1  0.88565775  0.04568346  0.39237548  1.0
  P  P5279  1  0.88565775  0.18854060  0.39237548  1.0
  P  P5280  1  0.88565775  0.33139774  0.39237548  1.0
  P  P5281  1  0.88565775  0.47425488  0.39237548  1.0
  P  P5282  1  0.88565775  0.61711203  0.39237548  1.0
  P  P5283  1  0.88565775  0.75996917  0.39237548  1.0
  P  P5284  1  0.88565775  0.90282631  0.39237548  1.0
  P  P5285  1  0.99676886  0.04568346  0.39237548  1.0
  P  P5286  1  0.99676886  0.18854060  0.39237548  1.0
  P  P5287  1  0.99676886  0.33139774  0.39237548  1.0
  P  P5288  1  0.99676886  0.47425488  0.39237548  1.0
  P  P5289  1  0.99676886  0.61711203  0.39237548  1.0
  P  P5290  1  0.99676886  0.75996917  0.39237548  1.0
  P  P5291  1  0.99676886  0.90282631  0.39237548  1.0
  P  P5292  1  0.01793288  0.05928890  0.43999453  1.0
  P  P5293  1  0.01793288  0.20214604  0.43999453  1.0
  P  P5294  1  0.01793288  0.34500318  0.43999453  1.0
  P  P5295  1  0.01793288  0.48786033  0.43999453  1.0
  P  P5296  1  0.01793288  0.63071747  0.43999453  1.0
  P  P5297  1  0.01793288  0.77357461  0.43999453  1.0
  P  P5298  1  0.01793288  0.91643176  0.43999453  1.0
  P  P5299  1  0.12904400  0.05928890  0.43999453  1.0
  P  P5300  1  0.12904400  0.20214604  0.43999453  1.0
  P  P5301  1  0.12904400  0.34500318  0.43999453  1.0
  P  P5302  1  0.12904400  0.48786033  0.43999453  1.0
  P  P5303  1  0.12904400  0.63071747  0.43999453  1.0
  P  P5304  1  0.12904400  0.77357461  0.43999453  1.0
  P  P5305  1  0.12904400  0.91643176  0.43999453  1.0
  P  P5306  1  0.24015511  0.05928890  0.43999453  1.0
  P  P5307  1  0.24015511  0.20214604  0.43999453  1.0
  P  P5308  1  0.24015511  0.34500318  0.43999453  1.0
  P  P5309  1  0.24015511  0.48786033  0.43999453  1.0
  P  P5310  1  0.24015511  0.63071747  0.43999453  1.0
  P  P5311  1  0.24015511  0.77357461  0.43999453  1.0
  P  P5312  1  0.24015511  0.91643176  0.43999453  1.0
  P  P5313  1  0.35126622  0.05928890  0.43999453  1.0
  P  P5314  1  0.35126622  0.20214604  0.43999453  1.0
  P  P5315  1  0.35126622  0.34500318  0.43999453  1.0
  P  P5316  1  0.35126622  0.48786033  0.43999453  1.0
  P  P5317  1  0.35126622  0.63071747  0.43999453  1.0
  P  P5318  1  0.35126622  0.77357461  0.43999453  1.0
  P  P5319  1  0.35126622  0.91643176  0.43999453  1.0
  P  P5320  1  0.46237733  0.05928890  0.43999453  1.0
  P  P5321  1  0.46237733  0.20214604  0.43999453  1.0
  P  P5322  1  0.46237733  0.34500318  0.43999453  1.0
  P  P5323  1  0.46237733  0.48786033  0.43999453  1.0
  P  P5324  1  0.46237733  0.63071747  0.43999453  1.0
  P  P5325  1  0.46237733  0.77357461  0.43999453  1.0
  P  P5326  1  0.46237733  0.91643176  0.43999453  1.0
  P  P5327  1  0.57348844  0.05928890  0.43999453  1.0
  P  P5328  1  0.57348844  0.20214604  0.43999453  1.0
  P  P5329  1  0.57348844  0.34500318  0.43999453  1.0
  P  P5330  1  0.57348844  0.48786033  0.43999453  1.0
  P  P5331  1  0.57348844  0.63071747  0.43999453  1.0
  P  P5332  1  0.57348844  0.77357461  0.43999453  1.0
  P  P5333  1  0.57348844  0.91643176  0.43999453  1.0
  P  P5334  1  0.68459955  0.05928890  0.43999453  1.0
  P  P5335  1  0.68459955  0.20214604  0.43999453  1.0
  P  P5336  1  0.68459955  0.34500318  0.43999453  1.0
  P  P5337  1  0.68459955  0.48786033  0.43999453  1.0
  P  P5338  1  0.68459955  0.63071747  0.43999453  1.0
  P  P5339  1  0.68459955  0.77357461  0.43999453  1.0
  P  P5340  1  0.68459955  0.91643176  0.43999453  1.0
  P  P5341  1  0.79571066  0.05928890  0.43999453  1.0
  P  P5342  1  0.79571066  0.20214604  0.43999453  1.0
  P  P5343  1  0.79571066  0.34500318  0.43999453  1.0
  P  P5344  1  0.79571066  0.48786033  0.43999453  1.0
  P  P5345  1  0.79571066  0.63071747  0.43999453  1.0
  P  P5346  1  0.79571066  0.77357461  0.43999453  1.0
  P  P5347  1  0.79571066  0.91643176  0.43999453  1.0
  P  P5348  1  0.90682177  0.05928890  0.43999453  1.0
  P  P5349  1  0.90682177  0.20214604  0.43999453  1.0
  P  P5350  1  0.90682177  0.34500318  0.43999453  1.0
  P  P5351  1  0.90682177  0.48786033  0.43999453  1.0
  P  P5352  1  0.90682177  0.63071747  0.43999453  1.0
  P  P5353  1  0.90682177  0.77357461  0.43999453  1.0
  P  P5354  1  0.90682177  0.91643176  0.43999453  1.0
  P  P5355  1  0.03909691  0.07289434  0.48761358  1.0
  P  P5356  1  0.03909691  0.21575148  0.48761358  1.0
  P  P5357  1  0.03909691  0.35860863  0.48761358  1.0
  P  P5358  1  0.03909691  0.50146577  0.48761358  1.0
  P  P5359  1  0.03909691  0.64432291  0.48761358  1.0
  P  P5360  1  0.03909691  0.78718005  0.48761358  1.0
  P  P5361  1  0.03909691  0.93003720  0.48761358  1.0
  P  P5362  1  0.15020802  0.07289434  0.48761358  1.0
  P  P5363  1  0.15020802  0.21575148  0.48761358  1.0
  P  P5364  1  0.15020802  0.35860863  0.48761358  1.0
  P  P5365  1  0.15020802  0.50146577  0.48761358  1.0
  P  P5366  1  0.15020802  0.64432291  0.48761358  1.0
  P  P5367  1  0.15020802  0.78718005  0.48761358  1.0
  P  P5368  1  0.15020802  0.93003720  0.48761358  1.0
  P  P5369  1  0.26131913  0.07289434  0.48761358  1.0
  P  P5370  1  0.26131913  0.21575148  0.48761358  1.0
  P  P5371  1  0.26131913  0.35860863  0.48761358  1.0
  P  P5372  1  0.26131913  0.50146577  0.48761358  1.0
  P  P5373  1  0.26131913  0.64432291  0.48761358  1.0
  P  P5374  1  0.26131913  0.78718005  0.48761358  1.0
  P  P5375  1  0.26131913  0.93003720  0.48761358  1.0
  P  P5376  1  0.37243024  0.07289434  0.48761358  1.0
  P  P5377  1  0.37243024  0.21575148  0.48761358  1.0
  P  P5378  1  0.37243024  0.35860863  0.48761358  1.0
  P  P5379  1  0.37243024  0.50146577  0.48761358  1.0
  P  P5380  1  0.37243024  0.64432291  0.48761358  1.0
  P  P5381  1  0.37243024  0.78718005  0.48761358  1.0
  P  P5382  1  0.37243024  0.93003720  0.48761358  1.0
  P  P5383  1  0.48354135  0.07289434  0.48761358  1.0
  P  P5384  1  0.48354135  0.21575148  0.48761358  1.0
  P  P5385  1  0.48354135  0.35860863  0.48761358  1.0
  P  P5386  1  0.48354135  0.50146577  0.48761358  1.0
  P  P5387  1  0.48354135  0.64432291  0.48761358  1.0
  P  P5388  1  0.48354135  0.78718005  0.48761358  1.0
  P  P5389  1  0.48354135  0.93003720  0.48761358  1.0
  P  P5390  1  0.59465246  0.07289434  0.48761358  1.0
  P  P5391  1  0.59465246  0.21575148  0.48761358  1.0
  P  P5392  1  0.59465246  0.35860863  0.48761358  1.0
  P  P5393  1  0.59465246  0.50146577  0.48761358  1.0
  P  P5394  1  0.59465246  0.64432291  0.48761358  1.0
  P  P5395  1  0.59465246  0.78718005  0.48761358  1.0
  P  P5396  1  0.59465246  0.93003720  0.48761358  1.0
  P  P5397  1  0.70576357  0.07289434  0.48761358  1.0
  P  P5398  1  0.70576357  0.21575148  0.48761358  1.0
  P  P5399  1  0.70576357  0.35860863  0.48761358  1.0
  P  P5400  1  0.70576357  0.50146577  0.48761358  1.0
  P  P5401  1  0.70576357  0.64432291  0.48761358  1.0
  P  P5402  1  0.70576357  0.78718005  0.48761358  1.0
  P  P5403  1  0.70576357  0.93003720  0.48761358  1.0
  P  P5404  1  0.81687468  0.07289434  0.48761358  1.0
  P  P5405  1  0.81687468  0.21575148  0.48761358  1.0
  P  P5406  1  0.81687468  0.35860863  0.48761358  1.0
  P  P5407  1  0.81687468  0.50146577  0.48761358  1.0
  P  P5408  1  0.81687468  0.64432291  0.48761358  1.0
  P  P5409  1  0.81687468  0.78718005  0.48761358  1.0
  P  P5410  1  0.81687468  0.93003720  0.48761358  1.0
  P  P5411  1  0.92798579  0.07289434  0.48761358  1.0
  P  P5412  1  0.92798579  0.21575148  0.48761358  1.0
  P  P5413  1  0.92798579  0.35860863  0.48761358  1.0
  P  P5414  1  0.92798579  0.50146577  0.48761358  1.0
  P  P5415  1  0.92798579  0.64432291  0.48761358  1.0
  P  P5416  1  0.92798579  0.78718005  0.48761358  1.0
  P  P5417  1  0.92798579  0.93003720  0.48761358  1.0
  P  P5418  1  0.04126968  0.12718753  0.42763976  1.0
  P  P5419  1  0.04126968  0.27004468  0.42763976  1.0
  P  P5420  1  0.04126968  0.41290182  0.42763976  1.0
  P  P5421  1  0.04126968  0.55575896  0.42763976  1.0
  P  P5422  1  0.04126968  0.69861611  0.42763976  1.0
  P  P5423  1  0.04126968  0.84147325  0.42763976  1.0
  P  P5424  1  0.04126968  0.98433039  0.42763976  1.0
  P  P5425  1  0.15238079  0.12718753  0.42763976  1.0
  P  P5426  1  0.15238079  0.27004468  0.42763976  1.0
  P  P5427  1  0.15238079  0.41290182  0.42763976  1.0
  P  P5428  1  0.15238079  0.55575896  0.42763976  1.0
  P  P5429  1  0.15238079  0.69861611  0.42763976  1.0
  P  P5430  1  0.15238079  0.84147325  0.42763976  1.0
  P  P5431  1  0.15238079  0.98433039  0.42763976  1.0
  P  P5432  1  0.26349190  0.12718753  0.42763976  1.0
  P  P5433  1  0.26349190  0.27004468  0.42763976  1.0
  P  P5434  1  0.26349190  0.41290182  0.42763976  1.0
  P  P5435  1  0.26349190  0.55575896  0.42763976  1.0
  P  P5436  1  0.26349190  0.69861611  0.42763976  1.0
  P  P5437  1  0.26349190  0.84147325  0.42763976  1.0
  P  P5438  1  0.26349190  0.98433039  0.42763976  1.0
  P  P5439  1  0.37460301  0.12718753  0.42763976  1.0
  P  P5440  1  0.37460301  0.27004468  0.42763976  1.0
  P  P5441  1  0.37460301  0.41290182  0.42763976  1.0
  P  P5442  1  0.37460301  0.55575896  0.42763976  1.0
  P  P5443  1  0.37460301  0.69861611  0.42763976  1.0
  P  P5444  1  0.37460301  0.84147325  0.42763976  1.0
  P  P5445  1  0.37460301  0.98433039  0.42763976  1.0
  P  P5446  1  0.48571412  0.12718753  0.42763976  1.0
  P  P5447  1  0.48571412  0.27004468  0.42763976  1.0
  P  P5448  1  0.48571412  0.41290182  0.42763976  1.0
  P  P5449  1  0.48571412  0.55575896  0.42763976  1.0
  P  P5450  1  0.48571412  0.69861611  0.42763976  1.0
  P  P5451  1  0.48571412  0.84147325  0.42763976  1.0
  P  P5452  1  0.48571412  0.98433039  0.42763976  1.0
  P  P5453  1  0.59682523  0.12718753  0.42763976  1.0
  P  P5454  1  0.59682523  0.27004468  0.42763976  1.0
  P  P5455  1  0.59682523  0.41290182  0.42763976  1.0
  P  P5456  1  0.59682523  0.55575896  0.42763976  1.0
  P  P5457  1  0.59682523  0.69861611  0.42763976  1.0
  P  P5458  1  0.59682523  0.84147325  0.42763976  1.0
  P  P5459  1  0.59682523  0.98433039  0.42763976  1.0
  P  P5460  1  0.70793634  0.12718753  0.42763976  1.0
  P  P5461  1  0.70793634  0.27004468  0.42763976  1.0
  P  P5462  1  0.70793634  0.41290182  0.42763976  1.0
  P  P5463  1  0.70793634  0.55575896  0.42763976  1.0
  P  P5464  1  0.70793634  0.69861611  0.42763976  1.0
  P  P5465  1  0.70793634  0.84147325  0.42763976  1.0
  P  P5466  1  0.70793634  0.98433039  0.42763976  1.0
  P  P5467  1  0.81904745  0.12718753  0.42763976  1.0
  P  P5468  1  0.81904745  0.27004468  0.42763976  1.0
  P  P5469  1  0.81904745  0.41290182  0.42763976  1.0
  P  P5470  1  0.81904745  0.55575896  0.42763976  1.0
  P  P5471  1  0.81904745  0.69861611  0.42763976  1.0
  P  P5472  1  0.81904745  0.84147325  0.42763976  1.0
  P  P5473  1  0.81904745  0.98433039  0.42763976  1.0
  P  P5474  1  0.93015857  0.12718753  0.42763976  1.0
  P  P5475  1  0.93015857  0.27004468  0.42763976  1.0
  P  P5476  1  0.93015857  0.41290182  0.42763976  1.0
  P  P5477  1  0.93015857  0.55575896  0.42763976  1.0
  P  P5478  1  0.93015857  0.69861611  0.42763976  1.0
  P  P5479  1  0.93015857  0.84147325  0.42763976  1.0
  P  P5480  1  0.93015857  0.98433039  0.42763976  1.0
  P  P5481  1  0.06243370  0.14079298  0.47525880  1.0
  P  P5482  1  0.06243370  0.28365012  0.47525880  1.0
  P  P5483  1  0.06243370  0.42650726  0.47525880  1.0
  P  P5484  1  0.06243370  0.56936441  0.47525880  1.0
  P  P5485  1  0.06243370  0.71222155  0.47525880  1.0
  P  P5486  1  0.06243370  0.85507869  0.47525880  1.0
  P  P5487  1  0.06243370  0.99793583  0.47525880  1.0
  P  P5488  1  0.17354481  0.14079298  0.47525880  1.0
  P  P5489  1  0.17354481  0.28365012  0.47525880  1.0
  P  P5490  1  0.17354481  0.42650726  0.47525880  1.0
  P  P5491  1  0.17354481  0.56936441  0.47525880  1.0
  P  P5492  1  0.17354481  0.71222155  0.47525880  1.0
  P  P5493  1  0.17354481  0.85507869  0.47525880  1.0
  P  P5494  1  0.17354481  0.99793583  0.47525880  1.0
  P  P5495  1  0.28465592  0.14079298  0.47525880  1.0
  P  P5496  1  0.28465592  0.28365012  0.47525880  1.0
  P  P5497  1  0.28465592  0.42650726  0.47525880  1.0
  P  P5498  1  0.28465592  0.56936441  0.47525880  1.0
  P  P5499  1  0.28465592  0.71222155  0.47525880  1.0
  P  P5500  1  0.28465592  0.85507869  0.47525880  1.0
  P  P5501  1  0.28465592  0.99793583  0.47525880  1.0
  P  P5502  1  0.39576703  0.14079298  0.47525880  1.0
  P  P5503  1  0.39576703  0.28365012  0.47525880  1.0
  P  P5504  1  0.39576703  0.42650726  0.47525880  1.0
  P  P5505  1  0.39576703  0.56936441  0.47525880  1.0
  P  P5506  1  0.39576703  0.71222155  0.47525880  1.0
  P  P5507  1  0.39576703  0.85507869  0.47525880  1.0
  P  P5508  1  0.39576703  0.99793583  0.47525880  1.0
  P  P5509  1  0.50687814  0.14079298  0.47525880  1.0
  P  P5510  1  0.50687814  0.28365012  0.47525880  1.0
  P  P5511  1  0.50687814  0.42650726  0.47525880  1.0
  P  P5512  1  0.50687814  0.56936441  0.47525880  1.0
  P  P5513  1  0.50687814  0.71222155  0.47525880  1.0
  P  P5514  1  0.50687814  0.85507869  0.47525880  1.0
  P  P5515  1  0.50687814  0.99793583  0.47525880  1.0
  P  P5516  1  0.61798925  0.14079298  0.47525880  1.0
  P  P5517  1  0.61798925  0.28365012  0.47525880  1.0
  P  P5518  1  0.61798925  0.42650726  0.47525880  1.0
  P  P5519  1  0.61798925  0.56936441  0.47525880  1.0
  P  P5520  1  0.61798925  0.71222155  0.47525880  1.0
  P  P5521  1  0.61798925  0.85507869  0.47525880  1.0
  P  P5522  1  0.61798925  0.99793583  0.47525880  1.0
  P  P5523  1  0.72910036  0.14079298  0.47525880  1.0
  P  P5524  1  0.72910036  0.28365012  0.47525880  1.0
  P  P5525  1  0.72910036  0.42650726  0.47525880  1.0
  P  P5526  1  0.72910036  0.56936441  0.47525880  1.0
  P  P5527  1  0.72910036  0.71222155  0.47525880  1.0
  P  P5528  1  0.72910036  0.85507869  0.47525880  1.0
  P  P5529  1  0.72910036  0.99793583  0.47525880  1.0
  P  P5530  1  0.84021148  0.14079298  0.47525880  1.0
  P  P5531  1  0.84021148  0.28365012  0.47525880  1.0
  P  P5532  1  0.84021148  0.42650726  0.47525880  1.0
  P  P5533  1  0.84021148  0.56936441  0.47525880  1.0
  P  P5534  1  0.84021148  0.71222155  0.47525880  1.0
  P  P5535  1  0.84021148  0.85507869  0.47525880  1.0
  P  P5536  1  0.84021148  0.99793583  0.47525880  1.0
  P  P5537  1  0.95132259  0.14079298  0.47525880  1.0
  P  P5538  1  0.95132259  0.28365012  0.47525880  1.0
  P  P5539  1  0.95132259  0.42650726  0.47525880  1.0
  P  P5540  1  0.95132259  0.56936441  0.47525880  1.0
  P  P5541  1  0.95132259  0.71222155  0.47525880  1.0
  P  P5542  1  0.95132259  0.85507869  0.47525880  1.0
  P  P5543  1  0.95132259  0.99793583  0.47525880  1.0
  P  P5544  1  0.02010566  0.11358209  0.38002071  1.0
  P  P5545  1  0.02010566  0.25643924  0.38002071  1.0
  P  P5546  1  0.02010566  0.39929638  0.38002071  1.0
  P  P5547  1  0.02010566  0.54215352  0.38002071  1.0
  P  P5548  1  0.02010566  0.68501066  0.38002071  1.0
  P  P5549  1  0.02010566  0.82786781  0.38002071  1.0
  P  P5550  1  0.02010566  0.97072495  0.38002071  1.0
  P  P5551  1  0.13121677  0.11358209  0.38002071  1.0
  P  P5552  1  0.13121677  0.25643924  0.38002071  1.0
  P  P5553  1  0.13121677  0.39929638  0.38002071  1.0
  P  P5554  1  0.13121677  0.54215352  0.38002071  1.0
  P  P5555  1  0.13121677  0.68501066  0.38002071  1.0
  P  P5556  1  0.13121677  0.82786781  0.38002071  1.0
  P  P5557  1  0.13121677  0.97072495  0.38002071  1.0
  P  P5558  1  0.24232788  0.11358209  0.38002071  1.0
  P  P5559  1  0.24232788  0.25643924  0.38002071  1.0
  P  P5560  1  0.24232788  0.39929638  0.38002071  1.0
  P  P5561  1  0.24232788  0.54215352  0.38002071  1.0
  P  P5562  1  0.24232788  0.68501066  0.38002071  1.0
  P  P5563  1  0.24232788  0.82786781  0.38002071  1.0
  P  P5564  1  0.24232788  0.97072495  0.38002071  1.0
  P  P5565  1  0.35343899  0.11358209  0.38002071  1.0
  P  P5566  1  0.35343899  0.25643924  0.38002071  1.0
  P  P5567  1  0.35343899  0.39929638  0.38002071  1.0
  P  P5568  1  0.35343899  0.54215352  0.38002071  1.0
  P  P5569  1  0.35343899  0.68501066  0.38002071  1.0
  P  P5570  1  0.35343899  0.82786781  0.38002071  1.0
  P  P5571  1  0.35343899  0.97072495  0.38002071  1.0
  P  P5572  1  0.46455010  0.11358209  0.38002071  1.0
  P  P5573  1  0.46455010  0.25643924  0.38002071  1.0
  P  P5574  1  0.46455010  0.39929638  0.38002071  1.0
  P  P5575  1  0.46455010  0.54215352  0.38002071  1.0
  P  P5576  1  0.46455010  0.68501066  0.38002071  1.0
  P  P5577  1  0.46455010  0.82786781  0.38002071  1.0
  P  P5578  1  0.46455010  0.97072495  0.38002071  1.0
  P  P5579  1  0.57566121  0.11358209  0.38002071  1.0
  P  P5580  1  0.57566121  0.25643924  0.38002071  1.0
  P  P5581  1  0.57566121  0.39929638  0.38002071  1.0
  P  P5582  1  0.57566121  0.54215352  0.38002071  1.0
  P  P5583  1  0.57566121  0.68501066  0.38002071  1.0
  P  P5584  1  0.57566121  0.82786781  0.38002071  1.0
  P  P5585  1  0.57566121  0.97072495  0.38002071  1.0
  P  P5586  1  0.68677232  0.11358209  0.38002071  1.0
  P  P5587  1  0.68677232  0.25643924  0.38002071  1.0
  P  P5588  1  0.68677232  0.39929638  0.38002071  1.0
  P  P5589  1  0.68677232  0.54215352  0.38002071  1.0
  P  P5590  1  0.68677232  0.68501066  0.38002071  1.0
  P  P5591  1  0.68677232  0.82786781  0.38002071  1.0
  P  P5592  1  0.68677232  0.97072495  0.38002071  1.0
  P  P5593  1  0.79788343  0.11358209  0.38002071  1.0
  P  P5594  1  0.79788343  0.25643924  0.38002071  1.0
  P  P5595  1  0.79788343  0.39929638  0.38002071  1.0
  P  P5596  1  0.79788343  0.54215352  0.38002071  1.0
  P  P5597  1  0.79788343  0.68501066  0.38002071  1.0
  P  P5598  1  0.79788343  0.82786781  0.38002071  1.0
  P  P5599  1  0.79788343  0.97072495  0.38002071  1.0
  P  P5600  1  0.90899454  0.11358209  0.38002071  1.0
  P  P5601  1  0.90899454  0.25643924  0.38002071  1.0
  P  P5602  1  0.90899454  0.39929638  0.38002071  1.0
  P  P5603  1  0.90899454  0.54215352  0.38002071  1.0
  P  P5604  1  0.90899454  0.68501066  0.38002071  1.0
  P  P5605  1  0.90899454  0.82786781  0.38002071  1.0
  P  P5606  1  0.90899454  0.97072495  0.38002071  1.0
  P  P5607  1  0.05064627  0.12736070  0.38859965  1.0
  P  P5608  1  0.05064627  0.27021784  0.38859965  1.0
  P  P5609  1  0.05064627  0.41307498  0.38859965  1.0
  P  P5610  1  0.05064627  0.55593213  0.38859965  1.0
  P  P5611  1  0.05064627  0.69878927  0.38859965  1.0
  P  P5612  1  0.05064627  0.84164641  0.38859965  1.0
  P  P5613  1  0.05064627  0.98450355  0.38859965  1.0
  P  P5614  1  0.16175739  0.12736070  0.38859965  1.0
  P  P5615  1  0.16175739  0.27021784  0.38859965  1.0
  P  P5616  1  0.16175739  0.41307498  0.38859965  1.0
  P  P5617  1  0.16175739  0.55593213  0.38859965  1.0
  P  P5618  1  0.16175739  0.69878927  0.38859965  1.0
  P  P5619  1  0.16175739  0.84164641  0.38859965  1.0
  P  P5620  1  0.16175739  0.98450355  0.38859965  1.0
  P  P5621  1  0.27286850  0.12736070  0.38859965  1.0
  P  P5622  1  0.27286850  0.27021784  0.38859965  1.0
  P  P5623  1  0.27286850  0.41307498  0.38859965  1.0
  P  P5624  1  0.27286850  0.55593213  0.38859965  1.0
  P  P5625  1  0.27286850  0.69878927  0.38859965  1.0
  P  P5626  1  0.27286850  0.84164641  0.38859965  1.0
  P  P5627  1  0.27286850  0.98450355  0.38859965  1.0
  P  P5628  1  0.38397961  0.12736070  0.38859965  1.0
  P  P5629  1  0.38397961  0.27021784  0.38859965  1.0
  P  P5630  1  0.38397961  0.41307498  0.38859965  1.0
  P  P5631  1  0.38397961  0.55593213  0.38859965  1.0
  P  P5632  1  0.38397961  0.69878927  0.38859965  1.0
  P  P5633  1  0.38397961  0.84164641  0.38859965  1.0
  P  P5634  1  0.38397961  0.98450355  0.38859965  1.0
  P  P5635  1  0.49509072  0.12736070  0.38859965  1.0
  P  P5636  1  0.49509072  0.27021784  0.38859965  1.0
  P  P5637  1  0.49509072  0.41307498  0.38859965  1.0
  P  P5638  1  0.49509072  0.55593213  0.38859965  1.0
  P  P5639  1  0.49509072  0.69878927  0.38859965  1.0
  P  P5640  1  0.49509072  0.84164641  0.38859965  1.0
  P  P5641  1  0.49509072  0.98450355  0.38859965  1.0
  P  P5642  1  0.60620183  0.12736070  0.38859965  1.0
  P  P5643  1  0.60620183  0.27021784  0.38859965  1.0
  P  P5644  1  0.60620183  0.41307498  0.38859965  1.0
  P  P5645  1  0.60620183  0.55593213  0.38859965  1.0
  P  P5646  1  0.60620183  0.69878927  0.38859965  1.0
  P  P5647  1  0.60620183  0.84164641  0.38859965  1.0
  P  P5648  1  0.60620183  0.98450355  0.38859965  1.0
  P  P5649  1  0.71731294  0.12736070  0.38859965  1.0
  P  P5650  1  0.71731294  0.27021784  0.38859965  1.0
  P  P5651  1  0.71731294  0.41307498  0.38859965  1.0
  P  P5652  1  0.71731294  0.55593213  0.38859965  1.0
  P  P5653  1  0.71731294  0.69878927  0.38859965  1.0
  P  P5654  1  0.71731294  0.84164641  0.38859965  1.0
  P  P5655  1  0.71731294  0.98450355  0.38859965  1.0
  P  P5656  1  0.82842405  0.12736070  0.38859965  1.0
  P  P5657  1  0.82842405  0.27021784  0.38859965  1.0
  P  P5658  1  0.82842405  0.41307498  0.38859965  1.0
  P  P5659  1  0.82842405  0.55593213  0.38859965  1.0
  P  P5660  1  0.82842405  0.69878927  0.38859965  1.0
  P  P5661  1  0.82842405  0.84164641  0.38859965  1.0
  P  P5662  1  0.82842405  0.98450355  0.38859965  1.0
  P  P5663  1  0.93953516  0.12736070  0.38859965  1.0
  P  P5664  1  0.93953516  0.27021784  0.38859965  1.0
  P  P5665  1  0.93953516  0.41307498  0.38859965  1.0
  P  P5666  1  0.93953516  0.55593213  0.38859965  1.0
  P  P5667  1  0.93953516  0.69878927  0.38859965  1.0
  P  P5668  1  0.93953516  0.84164641  0.38859965  1.0
  P  P5669  1  0.93953516  0.98450355  0.38859965  1.0
  P  P5670  1  0.07181030  0.14096614  0.43621870  1.0
  P  P5671  1  0.07181030  0.28382328  0.43621870  1.0
  P  P5672  1  0.07181030  0.42668043  0.43621870  1.0
  P  P5673  1  0.07181030  0.56953757  0.43621870  1.0
  P  P5674  1  0.07181030  0.71239471  0.43621870  1.0
  P  P5675  1  0.07181030  0.85525185  0.43621870  1.0
  P  P5676  1  0.07181030  0.99810900  0.43621870  1.0
  P  P5677  1  0.18292141  0.14096614  0.43621870  1.0
  P  P5678  1  0.18292141  0.28382328  0.43621870  1.0
  P  P5679  1  0.18292141  0.42668043  0.43621870  1.0
  P  P5680  1  0.18292141  0.56953757  0.43621870  1.0
  P  P5681  1  0.18292141  0.71239471  0.43621870  1.0
  P  P5682  1  0.18292141  0.85525185  0.43621870  1.0
  P  P5683  1  0.18292141  0.99810900  0.43621870  1.0
  P  P5684  1  0.29403252  0.14096614  0.43621870  1.0
  P  P5685  1  0.29403252  0.28382328  0.43621870  1.0
  P  P5686  1  0.29403252  0.42668043  0.43621870  1.0
  P  P5687  1  0.29403252  0.56953757  0.43621870  1.0
  P  P5688  1  0.29403252  0.71239471  0.43621870  1.0
  P  P5689  1  0.29403252  0.85525185  0.43621870  1.0
  P  P5690  1  0.29403252  0.99810900  0.43621870  1.0
  P  P5691  1  0.40514363  0.14096614  0.43621870  1.0
  P  P5692  1  0.40514363  0.28382328  0.43621870  1.0
  P  P5693  1  0.40514363  0.42668043  0.43621870  1.0
  P  P5694  1  0.40514363  0.56953757  0.43621870  1.0
  P  P5695  1  0.40514363  0.71239471  0.43621870  1.0
  P  P5696  1  0.40514363  0.85525185  0.43621870  1.0
  P  P5697  1  0.40514363  0.99810900  0.43621870  1.0
  P  P5698  1  0.51625474  0.14096614  0.43621870  1.0
  P  P5699  1  0.51625474  0.28382328  0.43621870  1.0
  P  P5700  1  0.51625474  0.42668043  0.43621870  1.0
  P  P5701  1  0.51625474  0.56953757  0.43621870  1.0
  P  P5702  1  0.51625474  0.71239471  0.43621870  1.0
  P  P5703  1  0.51625474  0.85525185  0.43621870  1.0
  P  P5704  1  0.51625474  0.99810900  0.43621870  1.0
  P  P5705  1  0.62736585  0.14096614  0.43621870  1.0
  P  P5706  1  0.62736585  0.28382328  0.43621870  1.0
  P  P5707  1  0.62736585  0.42668043  0.43621870  1.0
  P  P5708  1  0.62736585  0.56953757  0.43621870  1.0
  P  P5709  1  0.62736585  0.71239471  0.43621870  1.0
  P  P5710  1  0.62736585  0.85525185  0.43621870  1.0
  P  P5711  1  0.62736585  0.99810900  0.43621870  1.0
  P  P5712  1  0.73847696  0.14096614  0.43621870  1.0
  P  P5713  1  0.73847696  0.28382328  0.43621870  1.0
  P  P5714  1  0.73847696  0.42668043  0.43621870  1.0
  P  P5715  1  0.73847696  0.56953757  0.43621870  1.0
  P  P5716  1  0.73847696  0.71239471  0.43621870  1.0
  P  P5717  1  0.73847696  0.85525185  0.43621870  1.0
  P  P5718  1  0.73847696  0.99810900  0.43621870  1.0
  P  P5719  1  0.84958807  0.14096614  0.43621870  1.0
  P  P5720  1  0.84958807  0.28382328  0.43621870  1.0
  P  P5721  1  0.84958807  0.42668043  0.43621870  1.0
  P  P5722  1  0.84958807  0.56953757  0.43621870  1.0
  P  P5723  1  0.84958807  0.71239471  0.43621870  1.0
  P  P5724  1  0.84958807  0.85525185  0.43621870  1.0
  P  P5725  1  0.84958807  0.99810900  0.43621870  1.0
  P  P5726  1  0.96069918  0.14096614  0.43621870  1.0
  P  P5727  1  0.96069918  0.28382328  0.43621870  1.0
  P  P5728  1  0.96069918  0.42668043  0.43621870  1.0
  P  P5729  1  0.96069918  0.56953757  0.43621870  1.0
  P  P5730  1  0.96069918  0.71239471  0.43621870  1.0
  P  P5731  1  0.96069918  0.85525185  0.43621870  1.0
  P  P5732  1  0.96069918  0.99810900  0.43621870  1.0
  P  P5733  1  0.09297432  0.01171444  0.48383775  1.0
  P  P5734  1  0.09297432  0.15457158  0.48383775  1.0
  P  P5735  1  0.09297432  0.29742872  0.48383775  1.0
  P  P5736  1  0.09297432  0.44028587  0.48383775  1.0
  P  P5737  1  0.09297432  0.58314301  0.48383775  1.0
  P  P5738  1  0.09297432  0.72600015  0.48383775  1.0
  P  P5739  1  0.09297432  0.86885730  0.48383775  1.0
  P  P5740  1  0.20408543  0.01171444  0.48383775  1.0
  P  P5741  1  0.20408543  0.15457158  0.48383775  1.0
  P  P5742  1  0.20408543  0.29742872  0.48383775  1.0
  P  P5743  1  0.20408543  0.44028587  0.48383775  1.0
  P  P5744  1  0.20408543  0.58314301  0.48383775  1.0
  P  P5745  1  0.20408543  0.72600015  0.48383775  1.0
  P  P5746  1  0.20408543  0.86885730  0.48383775  1.0
  P  P5747  1  0.31519654  0.01171444  0.48383775  1.0
  P  P5748  1  0.31519654  0.15457158  0.48383775  1.0
  P  P5749  1  0.31519654  0.29742872  0.48383775  1.0
  P  P5750  1  0.31519654  0.44028587  0.48383775  1.0
  P  P5751  1  0.31519654  0.58314301  0.48383775  1.0
  P  P5752  1  0.31519654  0.72600015  0.48383775  1.0
  P  P5753  1  0.31519654  0.86885730  0.48383775  1.0
  P  P5754  1  0.42630765  0.01171444  0.48383775  1.0
  P  P5755  1  0.42630765  0.15457158  0.48383775  1.0
  P  P5756  1  0.42630765  0.29742872  0.48383775  1.0
  P  P5757  1  0.42630765  0.44028587  0.48383775  1.0
  P  P5758  1  0.42630765  0.58314301  0.48383775  1.0
  P  P5759  1  0.42630765  0.72600015  0.48383775  1.0
  P  P5760  1  0.42630765  0.86885730  0.48383775  1.0
  P  P5761  1  0.53741876  0.01171444  0.48383775  1.0
  P  P5762  1  0.53741876  0.15457158  0.48383775  1.0
  P  P5763  1  0.53741876  0.29742872  0.48383775  1.0
  P  P5764  1  0.53741876  0.44028587  0.48383775  1.0
  P  P5765  1  0.53741876  0.58314301  0.48383775  1.0
  P  P5766  1  0.53741876  0.72600015  0.48383775  1.0
  P  P5767  1  0.53741876  0.86885730  0.48383775  1.0
  P  P5768  1  0.64852987  0.01171444  0.48383775  1.0
  P  P5769  1  0.64852987  0.15457158  0.48383775  1.0
  P  P5770  1  0.64852987  0.29742872  0.48383775  1.0
  P  P5771  1  0.64852987  0.44028587  0.48383775  1.0
  P  P5772  1  0.64852987  0.58314301  0.48383775  1.0
  P  P5773  1  0.64852987  0.72600015  0.48383775  1.0
  P  P5774  1  0.64852987  0.86885730  0.48383775  1.0
  P  P5775  1  0.75964098  0.01171444  0.48383775  1.0
  P  P5776  1  0.75964098  0.15457158  0.48383775  1.0
  P  P5777  1  0.75964098  0.29742872  0.48383775  1.0
  P  P5778  1  0.75964098  0.44028587  0.48383775  1.0
  P  P5779  1  0.75964098  0.58314301  0.48383775  1.0
  P  P5780  1  0.75964098  0.72600015  0.48383775  1.0
  P  P5781  1  0.75964098  0.86885730  0.48383775  1.0
  P  P5782  1  0.87075209  0.01171444  0.48383775  1.0
  P  P5783  1  0.87075209  0.15457158  0.48383775  1.0
  P  P5784  1  0.87075209  0.29742872  0.48383775  1.0
  P  P5785  1  0.87075209  0.44028587  0.48383775  1.0
  P  P5786  1  0.87075209  0.58314301  0.48383775  1.0
  P  P5787  1  0.87075209  0.72600015  0.48383775  1.0
  P  P5788  1  0.87075209  0.86885730  0.48383775  1.0
  P  P5789  1  0.98186321  0.01171444  0.48383775  1.0
  P  P5790  1  0.98186321  0.15457158  0.48383775  1.0
  P  P5791  1  0.98186321  0.29742872  0.48383775  1.0
  P  P5792  1  0.98186321  0.44028587  0.48383775  1.0
  P  P5793  1  0.98186321  0.58314301  0.48383775  1.0
  P  P5794  1  0.98186321  0.72600015  0.48383775  1.0
  P  P5795  1  0.98186321  0.86885730  0.48383775  1.0
  P  P5796  1  0.00863602  0.11657180  0.55217396  1.0
  P  P5797  1  0.00863602  0.25942894  0.55217396  1.0
  P  P5798  1  0.00863602  0.40228609  0.55217396  1.0
  P  P5799  1  0.00863602  0.54514323  0.55217396  1.0
  P  P5800  1  0.00863602  0.68800037  0.55217396  1.0
  P  P5801  1  0.00863602  0.83085752  0.55217396  1.0
  P  P5802  1  0.00863602  0.97371466  0.55217396  1.0
  P  P5803  1  0.11974714  0.11657180  0.55217396  1.0
  P  P5804  1  0.11974714  0.25942894  0.55217396  1.0
  P  P5805  1  0.11974714  0.40228609  0.55217396  1.0
  P  P5806  1  0.11974714  0.54514323  0.55217396  1.0
  P  P5807  1  0.11974714  0.68800037  0.55217396  1.0
  P  P5808  1  0.11974714  0.83085752  0.55217396  1.0
  P  P5809  1  0.11974714  0.97371466  0.55217396  1.0
  P  P5810  1  0.23085825  0.11657180  0.55217396  1.0
  P  P5811  1  0.23085825  0.25942894  0.55217396  1.0
  P  P5812  1  0.23085825  0.40228609  0.55217396  1.0
  P  P5813  1  0.23085825  0.54514323  0.55217396  1.0
  P  P5814  1  0.23085825  0.68800037  0.55217396  1.0
  P  P5815  1  0.23085825  0.83085752  0.55217396  1.0
  P  P5816  1  0.23085825  0.97371466  0.55217396  1.0
  P  P5817  1  0.34196936  0.11657180  0.55217396  1.0
  P  P5818  1  0.34196936  0.25942894  0.55217396  1.0
  P  P5819  1  0.34196936  0.40228609  0.55217396  1.0
  P  P5820  1  0.34196936  0.54514323  0.55217396  1.0
  P  P5821  1  0.34196936  0.68800037  0.55217396  1.0
  P  P5822  1  0.34196936  0.83085752  0.55217396  1.0
  P  P5823  1  0.34196936  0.97371466  0.55217396  1.0
  P  P5824  1  0.45308047  0.11657180  0.55217396  1.0
  P  P5825  1  0.45308047  0.25942894  0.55217396  1.0
  P  P5826  1  0.45308047  0.40228609  0.55217396  1.0
  P  P5827  1  0.45308047  0.54514323  0.55217396  1.0
  P  P5828  1  0.45308047  0.68800037  0.55217396  1.0
  P  P5829  1  0.45308047  0.83085752  0.55217396  1.0
  P  P5830  1  0.45308047  0.97371466  0.55217396  1.0
  P  P5831  1  0.56419158  0.11657180  0.55217396  1.0
  P  P5832  1  0.56419158  0.25942894  0.55217396  1.0
  P  P5833  1  0.56419158  0.40228609  0.55217396  1.0
  P  P5834  1  0.56419158  0.54514323  0.55217396  1.0
  P  P5835  1  0.56419158  0.68800037  0.55217396  1.0
  P  P5836  1  0.56419158  0.83085752  0.55217396  1.0
  P  P5837  1  0.56419158  0.97371466  0.55217396  1.0
  P  P5838  1  0.67530269  0.11657180  0.55217396  1.0
  P  P5839  1  0.67530269  0.25942894  0.55217396  1.0
  P  P5840  1  0.67530269  0.40228609  0.55217396  1.0
  P  P5841  1  0.67530269  0.54514323  0.55217396  1.0
  P  P5842  1  0.67530269  0.68800037  0.55217396  1.0
  P  P5843  1  0.67530269  0.83085752  0.55217396  1.0
  P  P5844  1  0.67530269  0.97371466  0.55217396  1.0
  P  P5845  1  0.78641380  0.11657180  0.55217396  1.0
  P  P5846  1  0.78641380  0.25942894  0.55217396  1.0
  P  P5847  1  0.78641380  0.40228609  0.55217396  1.0
  P  P5848  1  0.78641380  0.54514323  0.55217396  1.0
  P  P5849  1  0.78641380  0.68800037  0.55217396  1.0
  P  P5850  1  0.78641380  0.83085752  0.55217396  1.0
  P  P5851  1  0.78641380  0.97371466  0.55217396  1.0
  P  P5852  1  0.89752491  0.11657180  0.55217396  1.0
  P  P5853  1  0.89752491  0.25942894  0.55217396  1.0
  P  P5854  1  0.89752491  0.40228609  0.55217396  1.0
  P  P5855  1  0.89752491  0.54514323  0.55217396  1.0
  P  P5856  1  0.89752491  0.68800037  0.55217396  1.0
  P  P5857  1  0.89752491  0.83085752  0.55217396  1.0
  P  P5858  1  0.89752491  0.97371466  0.55217396  1.0
  P  P5859  1  0.02980005  0.13017724  0.59979300  1.0
  P  P5860  1  0.02980005  0.27303439  0.59979300  1.0
  P  P5861  1  0.02980005  0.41589153  0.59979300  1.0
  P  P5862  1  0.02980005  0.55874867  0.59979300  1.0
  P  P5863  1  0.02980005  0.70160581  0.59979300  1.0
  P  P5864  1  0.02980005  0.84446296  0.59979300  1.0
  P  P5865  1  0.02980005  0.98732010  0.59979300  1.0
  P  P5866  1  0.14091116  0.13017724  0.59979300  1.0
  P  P5867  1  0.14091116  0.27303439  0.59979300  1.0
  P  P5868  1  0.14091116  0.41589153  0.59979300  1.0
  P  P5869  1  0.14091116  0.55874867  0.59979300  1.0
  P  P5870  1  0.14091116  0.70160581  0.59979300  1.0
  P  P5871  1  0.14091116  0.84446296  0.59979300  1.0
  P  P5872  1  0.14091116  0.98732010  0.59979300  1.0
  P  P5873  1  0.25202227  0.13017724  0.59979300  1.0
  P  P5874  1  0.25202227  0.27303439  0.59979300  1.0
  P  P5875  1  0.25202227  0.41589153  0.59979300  1.0
  P  P5876  1  0.25202227  0.55874867  0.59979300  1.0
  P  P5877  1  0.25202227  0.70160581  0.59979300  1.0
  P  P5878  1  0.25202227  0.84446296  0.59979300  1.0
  P  P5879  1  0.25202227  0.98732010  0.59979300  1.0
  P  P5880  1  0.36313338  0.13017724  0.59979300  1.0
  P  P5881  1  0.36313338  0.27303439  0.59979300  1.0
  P  P5882  1  0.36313338  0.41589153  0.59979300  1.0
  P  P5883  1  0.36313338  0.55874867  0.59979300  1.0
  P  P5884  1  0.36313338  0.70160581  0.59979300  1.0
  P  P5885  1  0.36313338  0.84446296  0.59979300  1.0
  P  P5886  1  0.36313338  0.98732010  0.59979300  1.0
  P  P5887  1  0.47424449  0.13017724  0.59979300  1.0
  P  P5888  1  0.47424449  0.27303439  0.59979300  1.0
  P  P5889  1  0.47424449  0.41589153  0.59979300  1.0
  P  P5890  1  0.47424449  0.55874867  0.59979300  1.0
  P  P5891  1  0.47424449  0.70160581  0.59979300  1.0
  P  P5892  1  0.47424449  0.84446296  0.59979300  1.0
  P  P5893  1  0.47424449  0.98732010  0.59979300  1.0
  P  P5894  1  0.58535560  0.13017724  0.59979300  1.0
  P  P5895  1  0.58535560  0.27303439  0.59979300  1.0
  P  P5896  1  0.58535560  0.41589153  0.59979300  1.0
  P  P5897  1  0.58535560  0.55874867  0.59979300  1.0
  P  P5898  1  0.58535560  0.70160581  0.59979300  1.0
  P  P5899  1  0.58535560  0.84446296  0.59979300  1.0
  P  P5900  1  0.58535560  0.98732010  0.59979300  1.0
  P  P5901  1  0.69646671  0.13017724  0.59979300  1.0
  P  P5902  1  0.69646671  0.27303439  0.59979300  1.0
  P  P5903  1  0.69646671  0.41589153  0.59979300  1.0
  P  P5904  1  0.69646671  0.55874867  0.59979300  1.0
  P  P5905  1  0.69646671  0.70160581  0.59979300  1.0
  P  P5906  1  0.69646671  0.84446296  0.59979300  1.0
  P  P5907  1  0.69646671  0.98732010  0.59979300  1.0
  P  P5908  1  0.80757782  0.13017724  0.59979300  1.0
  P  P5909  1  0.80757782  0.27303439  0.59979300  1.0
  P  P5910  1  0.80757782  0.41589153  0.59979300  1.0
  P  P5911  1  0.80757782  0.55874867  0.59979300  1.0
  P  P5912  1  0.80757782  0.70160581  0.59979300  1.0
  P  P5913  1  0.80757782  0.84446296  0.59979300  1.0
  P  P5914  1  0.80757782  0.98732010  0.59979300  1.0
  P  P5915  1  0.91868893  0.13017724  0.59979300  1.0
  P  P5916  1  0.91868893  0.27303439  0.59979300  1.0
  P  P5917  1  0.91868893  0.41589153  0.59979300  1.0
  P  P5918  1  0.91868893  0.55874867  0.59979300  1.0
  P  P5919  1  0.91868893  0.70160581  0.59979300  1.0
  P  P5920  1  0.91868893  0.84446296  0.59979300  1.0
  P  P5921  1  0.91868893  0.98732010  0.59979300  1.0
  P  P5922  1  0.09858311  0.10296636  0.50455491  1.0
  P  P5923  1  0.09858311  0.24582350  0.50455491  1.0
  P  P5924  1  0.09858311  0.38868064  0.50455491  1.0
  P  P5925  1  0.09858311  0.53153779  0.50455491  1.0
  P  P5926  1  0.09858311  0.67439493  0.50455491  1.0
  P  P5927  1  0.09858311  0.81725207  0.50455491  1.0
  P  P5928  1  0.09858311  0.96010922  0.50455491  1.0
  P  P5929  1  0.20969423  0.10296636  0.50455491  1.0
  P  P5930  1  0.20969423  0.24582350  0.50455491  1.0
  P  P5931  1  0.20969423  0.38868064  0.50455491  1.0
  P  P5932  1  0.20969423  0.53153779  0.50455491  1.0
  P  P5933  1  0.20969423  0.67439493  0.50455491  1.0
  P  P5934  1  0.20969423  0.81725207  0.50455491  1.0
  P  P5935  1  0.20969423  0.96010922  0.50455491  1.0
  P  P5936  1  0.32080534  0.10296636  0.50455491  1.0
  P  P5937  1  0.32080534  0.24582350  0.50455491  1.0
  P  P5938  1  0.32080534  0.38868064  0.50455491  1.0
  P  P5939  1  0.32080534  0.53153779  0.50455491  1.0
  P  P5940  1  0.32080534  0.67439493  0.50455491  1.0
  P  P5941  1  0.32080534  0.81725207  0.50455491  1.0
  P  P5942  1  0.32080534  0.96010922  0.50455491  1.0
  P  P5943  1  0.43191645  0.10296636  0.50455491  1.0
  P  P5944  1  0.43191645  0.24582350  0.50455491  1.0
  P  P5945  1  0.43191645  0.38868064  0.50455491  1.0
  P  P5946  1  0.43191645  0.53153779  0.50455491  1.0
  P  P5947  1  0.43191645  0.67439493  0.50455491  1.0
  P  P5948  1  0.43191645  0.81725207  0.50455491  1.0
  P  P5949  1  0.43191645  0.96010922  0.50455491  1.0
  P  P5950  1  0.54302756  0.10296636  0.50455491  1.0
  P  P5951  1  0.54302756  0.24582350  0.50455491  1.0
  P  P5952  1  0.54302756  0.38868064  0.50455491  1.0
  P  P5953  1  0.54302756  0.53153779  0.50455491  1.0
  P  P5954  1  0.54302756  0.67439493  0.50455491  1.0
  P  P5955  1  0.54302756  0.81725207  0.50455491  1.0
  P  P5956  1  0.54302756  0.96010922  0.50455491  1.0
  P  P5957  1  0.65413867  0.10296636  0.50455491  1.0
  P  P5958  1  0.65413867  0.24582350  0.50455491  1.0
  P  P5959  1  0.65413867  0.38868064  0.50455491  1.0
  P  P5960  1  0.65413867  0.53153779  0.50455491  1.0
  P  P5961  1  0.65413867  0.67439493  0.50455491  1.0
  P  P5962  1  0.65413867  0.81725207  0.50455491  1.0
  P  P5963  1  0.65413867  0.96010922  0.50455491  1.0
  P  P5964  1  0.76524978  0.10296636  0.50455491  1.0
  P  P5965  1  0.76524978  0.24582350  0.50455491  1.0
  P  P5966  1  0.76524978  0.38868064  0.50455491  1.0
  P  P5967  1  0.76524978  0.53153779  0.50455491  1.0
  P  P5968  1  0.76524978  0.67439493  0.50455491  1.0
  P  P5969  1  0.76524978  0.81725207  0.50455491  1.0
  P  P5970  1  0.76524978  0.96010922  0.50455491  1.0
  P  P5971  1  0.87636089  0.10296636  0.50455491  1.0
  P  P5972  1  0.87636089  0.24582350  0.50455491  1.0
  P  P5973  1  0.87636089  0.38868064  0.50455491  1.0
  P  P5974  1  0.87636089  0.53153779  0.50455491  1.0
  P  P5975  1  0.87636089  0.67439493  0.50455491  1.0
  P  P5976  1  0.87636089  0.81725207  0.50455491  1.0
  P  P5977  1  0.87636089  0.96010922  0.50455491  1.0
  P  P5978  1  0.98747200  0.10296636  0.50455491  1.0
  P  P5979  1  0.98747200  0.24582350  0.50455491  1.0
  P  P5980  1  0.98747200  0.38868064  0.50455491  1.0
  P  P5981  1  0.98747200  0.53153779  0.50455491  1.0
  P  P5982  1  0.98747200  0.67439493  0.50455491  1.0
  P  P5983  1  0.98747200  0.81725207  0.50455491  1.0
  P  P5984  1  0.98747200  0.96010922  0.50455491  1.0
  P  P5985  1  0.09915294  0.07675194  0.54977974  1.0
  P  P5986  1  0.09915294  0.21960908  0.54977974  1.0
  P  P5987  1  0.09915294  0.36246623  0.54977974  1.0
  P  P5988  1  0.09915294  0.50532337  0.54977974  1.0
  P  P5989  1  0.09915294  0.64818051  0.54977974  1.0
  P  P5990  1  0.09915294  0.79103766  0.54977974  1.0
  P  P5991  1  0.09915294  0.93389480  0.54977974  1.0
  P  P5992  1  0.21026405  0.07675194  0.54977974  1.0
  P  P5993  1  0.21026405  0.21960908  0.54977974  1.0
  P  P5994  1  0.21026405  0.36246623  0.54977974  1.0
  P  P5995  1  0.21026405  0.50532337  0.54977974  1.0
  P  P5996  1  0.21026405  0.64818051  0.54977974  1.0
  P  P5997  1  0.21026405  0.79103766  0.54977974  1.0
  P  P5998  1  0.21026405  0.93389480  0.54977974  1.0
  P  P5999  1  0.32137516  0.07675194  0.54977974  1.0
  P  P6000  1  0.32137516  0.21960908  0.54977974  1.0
  P  P6001  1  0.32137516  0.36246623  0.54977974  1.0
  P  P6002  1  0.32137516  0.50532337  0.54977974  1.0
  P  P6003  1  0.32137516  0.64818051  0.54977974  1.0
  P  P6004  1  0.32137516  0.79103766  0.54977974  1.0
  P  P6005  1  0.32137516  0.93389480  0.54977974  1.0
  P  P6006  1  0.43248628  0.07675194  0.54977974  1.0
  P  P6007  1  0.43248628  0.21960908  0.54977974  1.0
  P  P6008  1  0.43248628  0.36246623  0.54977974  1.0
  P  P6009  1  0.43248628  0.50532337  0.54977974  1.0
  P  P6010  1  0.43248628  0.64818051  0.54977974  1.0
  P  P6011  1  0.43248628  0.79103766  0.54977974  1.0
  P  P6012  1  0.43248628  0.93389480  0.54977974  1.0
  P  P6013  1  0.54359739  0.07675194  0.54977974  1.0
  P  P6014  1  0.54359739  0.21960908  0.54977974  1.0
  P  P6015  1  0.54359739  0.36246623  0.54977974  1.0
  P  P6016  1  0.54359739  0.50532337  0.54977974  1.0
  P  P6017  1  0.54359739  0.64818051  0.54977974  1.0
  P  P6018  1  0.54359739  0.79103766  0.54977974  1.0
  P  P6019  1  0.54359739  0.93389480  0.54977974  1.0
  P  P6020  1  0.65470850  0.07675194  0.54977974  1.0
  P  P6021  1  0.65470850  0.21960908  0.54977974  1.0
  P  P6022  1  0.65470850  0.36246623  0.54977974  1.0
  P  P6023  1  0.65470850  0.50532337  0.54977974  1.0
  P  P6024  1  0.65470850  0.64818051  0.54977974  1.0
  P  P6025  1  0.65470850  0.79103766  0.54977974  1.0
  P  P6026  1  0.65470850  0.93389480  0.54977974  1.0
  P  P6027  1  0.76581961  0.07675194  0.54977974  1.0
  P  P6028  1  0.76581961  0.21960908  0.54977974  1.0
  P  P6029  1  0.76581961  0.36246623  0.54977974  1.0
  P  P6030  1  0.76581961  0.50532337  0.54977974  1.0
  P  P6031  1  0.76581961  0.64818051  0.54977974  1.0
  P  P6032  1  0.76581961  0.79103766  0.54977974  1.0
  P  P6033  1  0.76581961  0.93389480  0.54977974  1.0
  P  P6034  1  0.87693072  0.07675194  0.54977974  1.0
  P  P6035  1  0.87693072  0.21960908  0.54977974  1.0
  P  P6036  1  0.87693072  0.36246623  0.54977974  1.0
  P  P6037  1  0.87693072  0.50532337  0.54977974  1.0
  P  P6038  1  0.87693072  0.64818051  0.54977974  1.0
  P  P6039  1  0.87693072  0.79103766  0.54977974  1.0
  P  P6040  1  0.87693072  0.93389480  0.54977974  1.0
  P  P6041  1  0.98804183  0.07675194  0.54977974  1.0
  P  P6042  1  0.98804183  0.21960908  0.54977974  1.0
  P  P6043  1  0.98804183  0.36246623  0.54977974  1.0
  P  P6044  1  0.98804183  0.50532337  0.54977974  1.0
  P  P6045  1  0.98804183  0.64818051  0.54977974  1.0
  P  P6046  1  0.98804183  0.79103766  0.54977974  1.0
  P  P6047  1  0.98804183  0.93389480  0.54977974  1.0
  P  P6048  1  0.00920585  0.09035738  0.59739879  1.0
  P  P6049  1  0.00920585  0.23321453  0.59739879  1.0
  P  P6050  1  0.00920585  0.37607167  0.59739879  1.0
  P  P6051  1  0.00920585  0.51892881  0.59739879  1.0
  P  P6052  1  0.00920585  0.66178596  0.59739879  1.0
  P  P6053  1  0.00920585  0.80464310  0.59739879  1.0
  P  P6054  1  0.00920585  0.94750024  0.59739879  1.0
  P  P6055  1  0.12031696  0.09035738  0.59739879  1.0
  P  P6056  1  0.12031696  0.23321453  0.59739879  1.0
  P  P6057  1  0.12031696  0.37607167  0.59739879  1.0
  P  P6058  1  0.12031696  0.51892881  0.59739879  1.0
  P  P6059  1  0.12031696  0.66178596  0.59739879  1.0
  P  P6060  1  0.12031696  0.80464310  0.59739879  1.0
  P  P6061  1  0.12031696  0.94750024  0.59739879  1.0
  P  P6062  1  0.23142807  0.09035738  0.59739879  1.0
  P  P6063  1  0.23142807  0.23321453  0.59739879  1.0
  P  P6064  1  0.23142807  0.37607167  0.59739879  1.0
  P  P6065  1  0.23142807  0.51892881  0.59739879  1.0
  P  P6066  1  0.23142807  0.66178596  0.59739879  1.0
  P  P6067  1  0.23142807  0.80464310  0.59739879  1.0
  P  P6068  1  0.23142807  0.94750024  0.59739879  1.0
  P  P6069  1  0.34253919  0.09035738  0.59739879  1.0
  P  P6070  1  0.34253919  0.23321453  0.59739879  1.0
  P  P6071  1  0.34253919  0.37607167  0.59739879  1.0
  P  P6072  1  0.34253919  0.51892881  0.59739879  1.0
  P  P6073  1  0.34253919  0.66178596  0.59739879  1.0
  P  P6074  1  0.34253919  0.80464310  0.59739879  1.0
  P  P6075  1  0.34253919  0.94750024  0.59739879  1.0
  P  P6076  1  0.45365030  0.09035738  0.59739879  1.0
  P  P6077  1  0.45365030  0.23321453  0.59739879  1.0
  P  P6078  1  0.45365030  0.37607167  0.59739879  1.0
  P  P6079  1  0.45365030  0.51892881  0.59739879  1.0
  P  P6080  1  0.45365030  0.66178596  0.59739879  1.0
  P  P6081  1  0.45365030  0.80464310  0.59739879  1.0
  P  P6082  1  0.45365030  0.94750024  0.59739879  1.0
  P  P6083  1  0.56476141  0.09035738  0.59739879  1.0
  P  P6084  1  0.56476141  0.23321453  0.59739879  1.0
  P  P6085  1  0.56476141  0.37607167  0.59739879  1.0
  P  P6086  1  0.56476141  0.51892881  0.59739879  1.0
  P  P6087  1  0.56476141  0.66178596  0.59739879  1.0
  P  P6088  1  0.56476141  0.80464310  0.59739879  1.0
  P  P6089  1  0.56476141  0.94750024  0.59739879  1.0
  P  P6090  1  0.67587252  0.09035738  0.59739879  1.0
  P  P6091  1  0.67587252  0.23321453  0.59739879  1.0
  P  P6092  1  0.67587252  0.37607167  0.59739879  1.0
  P  P6093  1  0.67587252  0.51892881  0.59739879  1.0
  P  P6094  1  0.67587252  0.66178596  0.59739879  1.0
  P  P6095  1  0.67587252  0.80464310  0.59739879  1.0
  P  P6096  1  0.67587252  0.94750024  0.59739879  1.0
  P  P6097  1  0.78698363  0.09035738  0.59739879  1.0
  P  P6098  1  0.78698363  0.23321453  0.59739879  1.0
  P  P6099  1  0.78698363  0.37607167  0.59739879  1.0
  P  P6100  1  0.78698363  0.51892881  0.59739879  1.0
  P  P6101  1  0.78698363  0.66178596  0.59739879  1.0
  P  P6102  1  0.78698363  0.80464310  0.59739879  1.0
  P  P6103  1  0.78698363  0.94750024  0.59739879  1.0
  P  P6104  1  0.89809474  0.09035738  0.59739879  1.0
  P  P6105  1  0.89809474  0.23321453  0.59739879  1.0
  P  P6106  1  0.89809474  0.37607167  0.59739879  1.0
  P  P6107  1  0.89809474  0.51892881  0.59739879  1.0
  P  P6108  1  0.89809474  0.66178596  0.59739879  1.0
  P  P6109  1  0.89809474  0.80464310  0.59739879  1.0
  P  P6110  1  0.89809474  0.94750024  0.59739879  1.0
  P  P6111  1  0.07798892  0.06314650  0.50216069  1.0
  P  P6112  1  0.07798892  0.20600364  0.50216069  1.0
  P  P6113  1  0.07798892  0.34886079  0.50216069  1.0
  P  P6114  1  0.07798892  0.49171793  0.50216069  1.0
  P  P6115  1  0.07798892  0.63457507  0.50216069  1.0
  P  P6116  1  0.07798892  0.77743221  0.50216069  1.0
  P  P6117  1  0.07798892  0.92028936  0.50216069  1.0
  P  P6118  1  0.18910003  0.06314650  0.50216069  1.0
  P  P6119  1  0.18910003  0.20600364  0.50216069  1.0
  P  P6120  1  0.18910003  0.34886079  0.50216069  1.0
  P  P6121  1  0.18910003  0.49171793  0.50216069  1.0
  P  P6122  1  0.18910003  0.63457507  0.50216069  1.0
  P  P6123  1  0.18910003  0.77743221  0.50216069  1.0
  P  P6124  1  0.18910003  0.92028936  0.50216069  1.0
  P  P6125  1  0.30021114  0.06314650  0.50216069  1.0
  P  P6126  1  0.30021114  0.20600364  0.50216069  1.0
  P  P6127  1  0.30021114  0.34886079  0.50216069  1.0
  P  P6128  1  0.30021114  0.49171793  0.50216069  1.0
  P  P6129  1  0.30021114  0.63457507  0.50216069  1.0
  P  P6130  1  0.30021114  0.77743221  0.50216069  1.0
  P  P6131  1  0.30021114  0.92028936  0.50216069  1.0
  P  P6132  1  0.41132225  0.06314650  0.50216069  1.0
  P  P6133  1  0.41132225  0.20600364  0.50216069  1.0
  P  P6134  1  0.41132225  0.34886079  0.50216069  1.0
  P  P6135  1  0.41132225  0.49171793  0.50216069  1.0
  P  P6136  1  0.41132225  0.63457507  0.50216069  1.0
  P  P6137  1  0.41132225  0.77743221  0.50216069  1.0
  P  P6138  1  0.41132225  0.92028936  0.50216069  1.0
  P  P6139  1  0.52243337  0.06314650  0.50216069  1.0
  P  P6140  1  0.52243337  0.20600364  0.50216069  1.0
  P  P6141  1  0.52243337  0.34886079  0.50216069  1.0
  P  P6142  1  0.52243337  0.49171793  0.50216069  1.0
  P  P6143  1  0.52243337  0.63457507  0.50216069  1.0
  P  P6144  1  0.52243337  0.77743221  0.50216069  1.0
  P  P6145  1  0.52243337  0.92028936  0.50216069  1.0
  P  P6146  1  0.63354448  0.06314650  0.50216069  1.0
  P  P6147  1  0.63354448  0.20600364  0.50216069  1.0
  P  P6148  1  0.63354448  0.34886079  0.50216069  1.0
  P  P6149  1  0.63354448  0.49171793  0.50216069  1.0
  P  P6150  1  0.63354448  0.63457507  0.50216069  1.0
  P  P6151  1  0.63354448  0.77743221  0.50216069  1.0
  P  P6152  1  0.63354448  0.92028936  0.50216069  1.0
  P  P6153  1  0.74465559  0.06314650  0.50216069  1.0
  P  P6154  1  0.74465559  0.20600364  0.50216069  1.0
  P  P6155  1  0.74465559  0.34886079  0.50216069  1.0
  P  P6156  1  0.74465559  0.49171793  0.50216069  1.0
  P  P6157  1  0.74465559  0.63457507  0.50216069  1.0
  P  P6158  1  0.74465559  0.77743221  0.50216069  1.0
  P  P6159  1  0.74465559  0.92028936  0.50216069  1.0
  P  P6160  1  0.85576670  0.06314650  0.50216069  1.0
  P  P6161  1  0.85576670  0.20600364  0.50216069  1.0
  P  P6162  1  0.85576670  0.34886079  0.50216069  1.0
  P  P6163  1  0.85576670  0.49171793  0.50216069  1.0
  P  P6164  1  0.85576670  0.63457507  0.50216069  1.0
  P  P6165  1  0.85576670  0.77743221  0.50216069  1.0
  P  P6166  1  0.85576670  0.92028936  0.50216069  1.0
  P  P6167  1  0.96687781  0.06314650  0.50216069  1.0
  P  P6168  1  0.96687781  0.20600364  0.50216069  1.0
  P  P6169  1  0.96687781  0.34886079  0.50216069  1.0
  P  P6170  1  0.96687781  0.49171793  0.50216069  1.0
  P  P6171  1  0.96687781  0.63457507  0.50216069  1.0
  P  P6172  1  0.96687781  0.77743221  0.50216069  1.0
  P  P6173  1  0.96687781  0.92028936  0.50216069  1.0
  P  P6174  1  0.06998948  0.00973465  0.56521922  1.0
  P  P6175  1  0.06998948  0.15259179  0.56521922  1.0
  P  P6176  1  0.06998948  0.29544894  0.56521922  1.0
  P  P6177  1  0.06998948  0.43830608  0.56521922  1.0
  P  P6178  1  0.06998948  0.58116322  0.56521922  1.0
  P  P6179  1  0.06998948  0.72402037  0.56521922  1.0
  P  P6180  1  0.06998948  0.86687751  0.56521922  1.0
  P  P6181  1  0.18110059  0.00973465  0.56521922  1.0
  P  P6182  1  0.18110059  0.15259179  0.56521922  1.0
  P  P6183  1  0.18110059  0.29544894  0.56521922  1.0
  P  P6184  1  0.18110059  0.43830608  0.56521922  1.0
  P  P6185  1  0.18110059  0.58116322  0.56521922  1.0
  P  P6186  1  0.18110059  0.72402037  0.56521922  1.0
  P  P6187  1  0.18110059  0.86687751  0.56521922  1.0
  P  P6188  1  0.29221170  0.00973465  0.56521922  1.0
  P  P6189  1  0.29221170  0.15259179  0.56521922  1.0
  P  P6190  1  0.29221170  0.29544894  0.56521922  1.0
  P  P6191  1  0.29221170  0.43830608  0.56521922  1.0
  P  P6192  1  0.29221170  0.58116322  0.56521922  1.0
  P  P6193  1  0.29221170  0.72402037  0.56521922  1.0
  P  P6194  1  0.29221170  0.86687751  0.56521922  1.0
  P  P6195  1  0.40332281  0.00973465  0.56521922  1.0
  P  P6196  1  0.40332281  0.15259179  0.56521922  1.0
  P  P6197  1  0.40332281  0.29544894  0.56521922  1.0
  P  P6198  1  0.40332281  0.43830608  0.56521922  1.0
  P  P6199  1  0.40332281  0.58116322  0.56521922  1.0
  P  P6200  1  0.40332281  0.72402037  0.56521922  1.0
  P  P6201  1  0.40332281  0.86687751  0.56521922  1.0
  P  P6202  1  0.51443392  0.00973465  0.56521922  1.0
  P  P6203  1  0.51443392  0.15259179  0.56521922  1.0
  P  P6204  1  0.51443392  0.29544894  0.56521922  1.0
  P  P6205  1  0.51443392  0.43830608  0.56521922  1.0
  P  P6206  1  0.51443392  0.58116322  0.56521922  1.0
  P  P6207  1  0.51443392  0.72402037  0.56521922  1.0
  P  P6208  1  0.51443392  0.86687751  0.56521922  1.0
  P  P6209  1  0.62554503  0.00973465  0.56521922  1.0
  P  P6210  1  0.62554503  0.15259179  0.56521922  1.0
  P  P6211  1  0.62554503  0.29544894  0.56521922  1.0
  P  P6212  1  0.62554503  0.43830608  0.56521922  1.0
  P  P6213  1  0.62554503  0.58116322  0.56521922  1.0
  P  P6214  1  0.62554503  0.72402037  0.56521922  1.0
  P  P6215  1  0.62554503  0.86687751  0.56521922  1.0
  P  P6216  1  0.73665614  0.00973465  0.56521922  1.0
  P  P6217  1  0.73665614  0.15259179  0.56521922  1.0
  P  P6218  1  0.73665614  0.29544894  0.56521922  1.0
  P  P6219  1  0.73665614  0.43830608  0.56521922  1.0
  P  P6220  1  0.73665614  0.58116322  0.56521922  1.0
  P  P6221  1  0.73665614  0.72402037  0.56521922  1.0
  P  P6222  1  0.73665614  0.86687751  0.56521922  1.0
  P  P6223  1  0.84776725  0.00973465  0.56521922  1.0
  P  P6224  1  0.84776725  0.15259179  0.56521922  1.0
  P  P6225  1  0.84776725  0.29544894  0.56521922  1.0
  P  P6226  1  0.84776725  0.43830608  0.56521922  1.0
  P  P6227  1  0.84776725  0.58116322  0.56521922  1.0
  P  P6228  1  0.84776725  0.72402037  0.56521922  1.0
  P  P6229  1  0.84776725  0.86687751  0.56521922  1.0
  P  P6230  1  0.95887837  0.00973465  0.56521922  1.0
  P  P6231  1  0.95887837  0.15259179  0.56521922  1.0
  P  P6232  1  0.95887837  0.29544894  0.56521922  1.0
  P  P6233  1  0.95887837  0.43830608  0.56521922  1.0
  P  P6234  1  0.95887837  0.58116322  0.56521922  1.0
  P  P6235  1  0.95887837  0.72402037  0.56521922  1.0
  P  P6236  1  0.95887837  0.86687751  0.56521922  1.0
  P  P6237  1  0.09115350  0.02334009  0.61283827  1.0
  P  P6238  1  0.09115350  0.16619724  0.61283827  1.0
  P  P6239  1  0.09115350  0.30905438  0.61283827  1.0
  P  P6240  1  0.09115350  0.45191152  0.61283827  1.0
  P  P6241  1  0.09115350  0.59476866  0.61283827  1.0
  P  P6242  1  0.09115350  0.73762581  0.61283827  1.0
  P  P6243  1  0.09115350  0.88048295  0.61283827  1.0
  P  P6244  1  0.20226461  0.02334009  0.61283827  1.0
  P  P6245  1  0.20226461  0.16619724  0.61283827  1.0
  P  P6246  1  0.20226461  0.30905438  0.61283827  1.0
  P  P6247  1  0.20226461  0.45191152  0.61283827  1.0
  P  P6248  1  0.20226461  0.59476866  0.61283827  1.0
  P  P6249  1  0.20226461  0.73762581  0.61283827  1.0
  P  P6250  1  0.20226461  0.88048295  0.61283827  1.0
  P  P6251  1  0.31337572  0.02334009  0.61283827  1.0
  P  P6252  1  0.31337572  0.16619724  0.61283827  1.0
  P  P6253  1  0.31337572  0.30905438  0.61283827  1.0
  P  P6254  1  0.31337572  0.45191152  0.61283827  1.0
  P  P6255  1  0.31337572  0.59476866  0.61283827  1.0
  P  P6256  1  0.31337572  0.73762581  0.61283827  1.0
  P  P6257  1  0.31337572  0.88048295  0.61283827  1.0
  P  P6258  1  0.42448683  0.02334009  0.61283827  1.0
  P  P6259  1  0.42448683  0.16619724  0.61283827  1.0
  P  P6260  1  0.42448683  0.30905438  0.61283827  1.0
  P  P6261  1  0.42448683  0.45191152  0.61283827  1.0
  P  P6262  1  0.42448683  0.59476866  0.61283827  1.0
  P  P6263  1  0.42448683  0.73762581  0.61283827  1.0
  P  P6264  1  0.42448683  0.88048295  0.61283827  1.0
  P  P6265  1  0.53559794  0.02334009  0.61283827  1.0
  P  P6266  1  0.53559794  0.16619724  0.61283827  1.0
  P  P6267  1  0.53559794  0.30905438  0.61283827  1.0
  P  P6268  1  0.53559794  0.45191152  0.61283827  1.0
  P  P6269  1  0.53559794  0.59476866  0.61283827  1.0
  P  P6270  1  0.53559794  0.73762581  0.61283827  1.0
  P  P6271  1  0.53559794  0.88048295  0.61283827  1.0
  P  P6272  1  0.64670905  0.02334009  0.61283827  1.0
  P  P6273  1  0.64670905  0.16619724  0.61283827  1.0
  P  P6274  1  0.64670905  0.30905438  0.61283827  1.0
  P  P6275  1  0.64670905  0.45191152  0.61283827  1.0
  P  P6276  1  0.64670905  0.59476866  0.61283827  1.0
  P  P6277  1  0.64670905  0.73762581  0.61283827  1.0
  P  P6278  1  0.64670905  0.88048295  0.61283827  1.0
  P  P6279  1  0.75782016  0.02334009  0.61283827  1.0
  P  P6280  1  0.75782016  0.16619724  0.61283827  1.0
  P  P6281  1  0.75782016  0.30905438  0.61283827  1.0
  P  P6282  1  0.75782016  0.45191152  0.61283827  1.0
  P  P6283  1  0.75782016  0.59476866  0.61283827  1.0
  P  P6284  1  0.75782016  0.73762581  0.61283827  1.0
  P  P6285  1  0.75782016  0.88048295  0.61283827  1.0
  P  P6286  1  0.86893128  0.02334009  0.61283827  1.0
  P  P6287  1  0.86893128  0.16619724  0.61283827  1.0
  P  P6288  1  0.86893128  0.30905438  0.61283827  1.0
  P  P6289  1  0.86893128  0.45191152  0.61283827  1.0
  P  P6290  1  0.86893128  0.59476866  0.61283827  1.0
  P  P6291  1  0.86893128  0.73762581  0.61283827  1.0
  P  P6292  1  0.86893128  0.88048295  0.61283827  1.0
  P  P6293  1  0.98004239  0.02334009  0.61283827  1.0
  P  P6294  1  0.98004239  0.16619724  0.61283827  1.0
  P  P6295  1  0.98004239  0.30905438  0.61283827  1.0
  P  P6296  1  0.98004239  0.45191152  0.61283827  1.0
  P  P6297  1  0.98004239  0.59476866  0.61283827  1.0
  P  P6298  1  0.98004239  0.73762581  0.61283827  1.0
  P  P6299  1  0.98004239  0.88048295  0.61283827  1.0
  P  P6300  1  0.04882546  0.13898635  0.51760017  1.0
  P  P6301  1  0.04882546  0.28184349  0.51760017  1.0
  P  P6302  1  0.04882546  0.42470064  0.51760017  1.0
  P  P6303  1  0.04882546  0.56755778  0.51760017  1.0
  P  P6304  1  0.04882546  0.71041492  0.51760017  1.0
  P  P6305  1  0.04882546  0.85327207  0.51760017  1.0
  P  P6306  1  0.04882546  0.99612921  0.51760017  1.0
  P  P6307  1  0.15993657  0.13898635  0.51760017  1.0
  P  P6308  1  0.15993657  0.28184349  0.51760017  1.0
  P  P6309  1  0.15993657  0.42470064  0.51760017  1.0
  P  P6310  1  0.15993657  0.56755778  0.51760017  1.0
  P  P6311  1  0.15993657  0.71041492  0.51760017  1.0
  P  P6312  1  0.15993657  0.85327207  0.51760017  1.0
  P  P6313  1  0.15993657  0.99612921  0.51760017  1.0
  P  P6314  1  0.27104768  0.13898635  0.51760017  1.0
  P  P6315  1  0.27104768  0.28184349  0.51760017  1.0
  P  P6316  1  0.27104768  0.42470064  0.51760017  1.0
  P  P6317  1  0.27104768  0.56755778  0.51760017  1.0
  P  P6318  1  0.27104768  0.71041492  0.51760017  1.0
  P  P6319  1  0.27104768  0.85327207  0.51760017  1.0
  P  P6320  1  0.27104768  0.99612921  0.51760017  1.0
  P  P6321  1  0.38215879  0.13898635  0.51760017  1.0
  P  P6322  1  0.38215879  0.28184349  0.51760017  1.0
  P  P6323  1  0.38215879  0.42470064  0.51760017  1.0
  P  P6324  1  0.38215879  0.56755778  0.51760017  1.0
  P  P6325  1  0.38215879  0.71041492  0.51760017  1.0
  P  P6326  1  0.38215879  0.85327207  0.51760017  1.0
  P  P6327  1  0.38215879  0.99612921  0.51760017  1.0
  P  P6328  1  0.49326990  0.13898635  0.51760017  1.0
  P  P6329  1  0.49326990  0.28184349  0.51760017  1.0
  P  P6330  1  0.49326990  0.42470064  0.51760017  1.0
  P  P6331  1  0.49326990  0.56755778  0.51760017  1.0
  P  P6332  1  0.49326990  0.71041492  0.51760017  1.0
  P  P6333  1  0.49326990  0.85327207  0.51760017  1.0
  P  P6334  1  0.49326990  0.99612921  0.51760017  1.0
  P  P6335  1  0.60438101  0.13898635  0.51760017  1.0
  P  P6336  1  0.60438101  0.28184349  0.51760017  1.0
  P  P6337  1  0.60438101  0.42470064  0.51760017  1.0
  P  P6338  1  0.60438101  0.56755778  0.51760017  1.0
  P  P6339  1  0.60438101  0.71041492  0.51760017  1.0
  P  P6340  1  0.60438101  0.85327207  0.51760017  1.0
  P  P6341  1  0.60438101  0.99612921  0.51760017  1.0
  P  P6342  1  0.71549212  0.13898635  0.51760017  1.0
  P  P6343  1  0.71549212  0.28184349  0.51760017  1.0
  P  P6344  1  0.71549212  0.42470064  0.51760017  1.0
  P  P6345  1  0.71549212  0.56755778  0.51760017  1.0
  P  P6346  1  0.71549212  0.71041492  0.51760017  1.0
  P  P6347  1  0.71549212  0.85327207  0.51760017  1.0
  P  P6348  1  0.71549212  0.99612921  0.51760017  1.0
  P  P6349  1  0.82660323  0.13898635  0.51760017  1.0
  P  P6350  1  0.82660323  0.28184349  0.51760017  1.0
  P  P6351  1  0.82660323  0.42470064  0.51760017  1.0
  P  P6352  1  0.82660323  0.56755778  0.51760017  1.0
  P  P6353  1  0.82660323  0.71041492  0.51760017  1.0
  P  P6354  1  0.82660323  0.85327207  0.51760017  1.0
  P  P6355  1  0.82660323  0.99612921  0.51760017  1.0
  P  P6356  1  0.93771434  0.13898635  0.51760017  1.0
  P  P6357  1  0.93771434  0.28184349  0.51760017  1.0
  P  P6358  1  0.93771434  0.42470064  0.51760017  1.0
  P  P6359  1  0.93771434  0.56755778  0.51760017  1.0
  P  P6360  1  0.93771434  0.71041492  0.51760017  1.0
  P  P6361  1  0.93771434  0.85327207  0.51760017  1.0
  P  P6362  1  0.93771434  0.99612921  0.51760017  1.0
  P  P6363  1  0.03779949  0.04073195  0.53673447  1.0
  P  P6364  1  0.03779949  0.18358909  0.53673447  1.0
  P  P6365  1  0.03779949  0.32644623  0.53673447  1.0
  P  P6366  1  0.03779949  0.46930338  0.53673447  1.0
  P  P6367  1  0.03779949  0.61216052  0.53673447  1.0
  P  P6368  1  0.03779949  0.75501766  0.53673447  1.0
  P  P6369  1  0.03779949  0.89787481  0.53673447  1.0
  P  P6370  1  0.14891060  0.04073195  0.53673447  1.0
  P  P6371  1  0.14891060  0.18358909  0.53673447  1.0
  P  P6372  1  0.14891060  0.32644623  0.53673447  1.0
  P  P6373  1  0.14891060  0.46930338  0.53673447  1.0
  P  P6374  1  0.14891060  0.61216052  0.53673447  1.0
  P  P6375  1  0.14891060  0.75501766  0.53673447  1.0
  P  P6376  1  0.14891060  0.89787481  0.53673447  1.0
  P  P6377  1  0.26002171  0.04073195  0.53673447  1.0
  P  P6378  1  0.26002171  0.18358909  0.53673447  1.0
  P  P6379  1  0.26002171  0.32644623  0.53673447  1.0
  P  P6380  1  0.26002171  0.46930338  0.53673447  1.0
  P  P6381  1  0.26002171  0.61216052  0.53673447  1.0
  P  P6382  1  0.26002171  0.75501766  0.53673447  1.0
  P  P6383  1  0.26002171  0.89787481  0.53673447  1.0
  P  P6384  1  0.37113282  0.04073195  0.53673447  1.0
  P  P6385  1  0.37113282  0.18358909  0.53673447  1.0
  P  P6386  1  0.37113282  0.32644623  0.53673447  1.0
  P  P6387  1  0.37113282  0.46930338  0.53673447  1.0
  P  P6388  1  0.37113282  0.61216052  0.53673447  1.0
  P  P6389  1  0.37113282  0.75501766  0.53673447  1.0
  P  P6390  1  0.37113282  0.89787481  0.53673447  1.0
  P  P6391  1  0.48224394  0.04073195  0.53673447  1.0
  P  P6392  1  0.48224394  0.18358909  0.53673447  1.0
  P  P6393  1  0.48224394  0.32644623  0.53673447  1.0
  P  P6394  1  0.48224394  0.46930338  0.53673447  1.0
  P  P6395  1  0.48224394  0.61216052  0.53673447  1.0
  P  P6396  1  0.48224394  0.75501766  0.53673447  1.0
  P  P6397  1  0.48224394  0.89787481  0.53673447  1.0
  P  P6398  1  0.59335505  0.04073195  0.53673447  1.0
  P  P6399  1  0.59335505  0.18358909  0.53673447  1.0
  P  P6400  1  0.59335505  0.32644623  0.53673447  1.0
  P  P6401  1  0.59335505  0.46930338  0.53673447  1.0
  P  P6402  1  0.59335505  0.61216052  0.53673447  1.0
  P  P6403  1  0.59335505  0.75501766  0.53673447  1.0
  P  P6404  1  0.59335505  0.89787481  0.53673447  1.0
  P  P6405  1  0.70446616  0.04073195  0.53673447  1.0
  P  P6406  1  0.70446616  0.18358909  0.53673447  1.0
  P  P6407  1  0.70446616  0.32644623  0.53673447  1.0
  P  P6408  1  0.70446616  0.46930338  0.53673447  1.0
  P  P6409  1  0.70446616  0.61216052  0.53673447  1.0
  P  P6410  1  0.70446616  0.75501766  0.53673447  1.0
  P  P6411  1  0.70446616  0.89787481  0.53673447  1.0
  P  P6412  1  0.81557727  0.04073195  0.53673447  1.0
  P  P6413  1  0.81557727  0.18358909  0.53673447  1.0
  P  P6414  1  0.81557727  0.32644623  0.53673447  1.0
  P  P6415  1  0.81557727  0.46930338  0.53673447  1.0
  P  P6416  1  0.81557727  0.61216052  0.53673447  1.0
  P  P6417  1  0.81557727  0.75501766  0.53673447  1.0
  P  P6418  1  0.81557727  0.89787481  0.53673447  1.0
  P  P6419  1  0.92668838  0.04073195  0.53673447  1.0
  P  P6420  1  0.92668838  0.18358909  0.53673447  1.0
  P  P6421  1  0.92668838  0.32644623  0.53673447  1.0
  P  P6422  1  0.92668838  0.46930338  0.53673447  1.0
  P  P6423  1  0.92668838  0.61216052  0.53673447  1.0
  P  P6424  1  0.92668838  0.75501766  0.53673447  1.0
  P  P6425  1  0.92668838  0.89787481  0.53673447  1.0
  P  P6426  1  0.05896351  0.05433739  0.58435352  1.0
  P  P6427  1  0.05896351  0.19719453  0.58435352  1.0
  P  P6428  1  0.05896351  0.34005168  0.58435352  1.0
  P  P6429  1  0.05896351  0.48290882  0.58435352  1.0
  P  P6430  1  0.05896351  0.62576596  0.58435352  1.0
  P  P6431  1  0.05896351  0.76862311  0.58435352  1.0
  P  P6432  1  0.05896351  0.91148025  0.58435352  1.0
  P  P6433  1  0.17007462  0.05433739  0.58435352  1.0
  P  P6434  1  0.17007462  0.19719453  0.58435352  1.0
  P  P6435  1  0.17007462  0.34005168  0.58435352  1.0
  P  P6436  1  0.17007462  0.48290882  0.58435352  1.0
  P  P6437  1  0.17007462  0.62576596  0.58435352  1.0
  P  P6438  1  0.17007462  0.76862311  0.58435352  1.0
  P  P6439  1  0.17007462  0.91148025  0.58435352  1.0
  P  P6440  1  0.28118573  0.05433739  0.58435352  1.0
  P  P6441  1  0.28118573  0.19719453  0.58435352  1.0
  P  P6442  1  0.28118573  0.34005168  0.58435352  1.0
  P  P6443  1  0.28118573  0.48290882  0.58435352  1.0
  P  P6444  1  0.28118573  0.62576596  0.58435352  1.0
  P  P6445  1  0.28118573  0.76862311  0.58435352  1.0
  P  P6446  1  0.28118573  0.91148025  0.58435352  1.0
  P  P6447  1  0.39229685  0.05433739  0.58435352  1.0
  P  P6448  1  0.39229685  0.19719453  0.58435352  1.0
  P  P6449  1  0.39229685  0.34005168  0.58435352  1.0
  P  P6450  1  0.39229685  0.48290882  0.58435352  1.0
  P  P6451  1  0.39229685  0.62576596  0.58435352  1.0
  P  P6452  1  0.39229685  0.76862311  0.58435352  1.0
  P  P6453  1  0.39229685  0.91148025  0.58435352  1.0
  P  P6454  1  0.50340796  0.05433739  0.58435352  1.0
  P  P6455  1  0.50340796  0.19719453  0.58435352  1.0
  P  P6456  1  0.50340796  0.34005168  0.58435352  1.0
  P  P6457  1  0.50340796  0.48290882  0.58435352  1.0
  P  P6458  1  0.50340796  0.62576596  0.58435352  1.0
  P  P6459  1  0.50340796  0.76862311  0.58435352  1.0
  P  P6460  1  0.50340796  0.91148025  0.58435352  1.0
  P  P6461  1  0.61451907  0.05433739  0.58435352  1.0
  P  P6462  1  0.61451907  0.19719453  0.58435352  1.0
  P  P6463  1  0.61451907  0.34005168  0.58435352  1.0
  P  P6464  1  0.61451907  0.48290882  0.58435352  1.0
  P  P6465  1  0.61451907  0.62576596  0.58435352  1.0
  P  P6466  1  0.61451907  0.76862311  0.58435352  1.0
  P  P6467  1  0.61451907  0.91148025  0.58435352  1.0
  P  P6468  1  0.72563018  0.05433739  0.58435352  1.0
  P  P6469  1  0.72563018  0.19719453  0.58435352  1.0
  P  P6470  1  0.72563018  0.34005168  0.58435352  1.0
  P  P6471  1  0.72563018  0.48290882  0.58435352  1.0
  P  P6472  1  0.72563018  0.62576596  0.58435352  1.0
  P  P6473  1  0.72563018  0.76862311  0.58435352  1.0
  P  P6474  1  0.72563018  0.91148025  0.58435352  1.0
  P  P6475  1  0.83674129  0.05433739  0.58435352  1.0
  P  P6476  1  0.83674129  0.19719453  0.58435352  1.0
  P  P6477  1  0.83674129  0.34005168  0.58435352  1.0
  P  P6478  1  0.83674129  0.48290882  0.58435352  1.0
  P  P6479  1  0.83674129  0.62576596  0.58435352  1.0
  P  P6480  1  0.83674129  0.76862311  0.58435352  1.0
  P  P6481  1  0.83674129  0.91148025  0.58435352  1.0
  P  P6482  1  0.94785240  0.05433739  0.58435352  1.0
  P  P6483  1  0.94785240  0.19719453  0.58435352  1.0
  P  P6484  1  0.94785240  0.34005168  0.58435352  1.0
  P  P6485  1  0.94785240  0.48290882  0.58435352  1.0
  P  P6486  1  0.94785240  0.62576596  0.58435352  1.0
  P  P6487  1  0.94785240  0.76862311  0.58435352  1.0
  P  P6488  1  0.94785240  0.91148025  0.58435352  1.0
  P  P6489  1  0.08012753  0.06794283  0.63197257  1.0
  P  P6490  1  0.08012753  0.21079998  0.63197257  1.0
  P  P6491  1  0.08012753  0.35365712  0.63197257  1.0
  P  P6492  1  0.08012753  0.49651426  0.63197257  1.0
  P  P6493  1  0.08012753  0.63937140  0.63197257  1.0
  P  P6494  1  0.08012753  0.78222855  0.63197257  1.0
  P  P6495  1  0.08012753  0.92508569  0.63197257  1.0
  P  P6496  1  0.19123864  0.06794283  0.63197257  1.0
  P  P6497  1  0.19123864  0.21079998  0.63197257  1.0
  P  P6498  1  0.19123864  0.35365712  0.63197257  1.0
  P  P6499  1  0.19123864  0.49651426  0.63197257  1.0
  P  P6500  1  0.19123864  0.63937140  0.63197257  1.0
  P  P6501  1  0.19123864  0.78222855  0.63197257  1.0
  P  P6502  1  0.19123864  0.92508569  0.63197257  1.0
  P  P6503  1  0.30234976  0.06794283  0.63197257  1.0
  P  P6504  1  0.30234976  0.21079998  0.63197257  1.0
  P  P6505  1  0.30234976  0.35365712  0.63197257  1.0
  P  P6506  1  0.30234976  0.49651426  0.63197257  1.0
  P  P6507  1  0.30234976  0.63937140  0.63197257  1.0
  P  P6508  1  0.30234976  0.78222855  0.63197257  1.0
  P  P6509  1  0.30234976  0.92508569  0.63197257  1.0
  P  P6510  1  0.41346087  0.06794283  0.63197257  1.0
  P  P6511  1  0.41346087  0.21079998  0.63197257  1.0
  P  P6512  1  0.41346087  0.35365712  0.63197257  1.0
  P  P6513  1  0.41346087  0.49651426  0.63197257  1.0
  P  P6514  1  0.41346087  0.63937140  0.63197257  1.0
  P  P6515  1  0.41346087  0.78222855  0.63197257  1.0
  P  P6516  1  0.41346087  0.92508569  0.63197257  1.0
  P  P6517  1  0.52457198  0.06794283  0.63197257  1.0
  P  P6518  1  0.52457198  0.21079998  0.63197257  1.0
  P  P6519  1  0.52457198  0.35365712  0.63197257  1.0
  P  P6520  1  0.52457198  0.49651426  0.63197257  1.0
  P  P6521  1  0.52457198  0.63937140  0.63197257  1.0
  P  P6522  1  0.52457198  0.78222855  0.63197257  1.0
  P  P6523  1  0.52457198  0.92508569  0.63197257  1.0
  P  P6524  1  0.63568309  0.06794283  0.63197257  1.0
  P  P6525  1  0.63568309  0.21079998  0.63197257  1.0
  P  P6526  1  0.63568309  0.35365712  0.63197257  1.0
  P  P6527  1  0.63568309  0.49651426  0.63197257  1.0
  P  P6528  1  0.63568309  0.63937140  0.63197257  1.0
  P  P6529  1  0.63568309  0.78222855  0.63197257  1.0
  P  P6530  1  0.63568309  0.92508569  0.63197257  1.0
  P  P6531  1  0.74679420  0.06794283  0.63197257  1.0
  P  P6532  1  0.74679420  0.21079998  0.63197257  1.0
  P  P6533  1  0.74679420  0.35365712  0.63197257  1.0
  P  P6534  1  0.74679420  0.49651426  0.63197257  1.0
  P  P6535  1  0.74679420  0.63937140  0.63197257  1.0
  P  P6536  1  0.74679420  0.78222855  0.63197257  1.0
  P  P6537  1  0.74679420  0.92508569  0.63197257  1.0
  P  P6538  1  0.85790531  0.06794283  0.63197257  1.0
  P  P6539  1  0.85790531  0.21079998  0.63197257  1.0
  P  P6540  1  0.85790531  0.35365712  0.63197257  1.0
  P  P6541  1  0.85790531  0.49651426  0.63197257  1.0
  P  P6542  1  0.85790531  0.63937140  0.63197257  1.0
  P  P6543  1  0.85790531  0.78222855  0.63197257  1.0
  P  P6544  1  0.85790531  0.92508569  0.63197257  1.0
  P  P6545  1  0.96901642  0.06794283  0.63197257  1.0
  P  P6546  1  0.96901642  0.21079998  0.63197257  1.0
  P  P6547  1  0.96901642  0.35365712  0.63197257  1.0
  P  P6548  1  0.96901642  0.49651426  0.63197257  1.0
  P  P6549  1  0.96901642  0.63937140  0.63197257  1.0
  P  P6550  1  0.96901642  0.78222855  0.63197257  1.0
  P  P6551  1  0.96901642  0.92508569  0.63197257  1.0
  P  P6552  1  0.04752804  0.10682396  0.56672107  1.0
  P  P6553  1  0.04752804  0.24968110  0.56672107  1.0
  P  P6554  1  0.04752804  0.39253825  0.56672107  1.0
  P  P6555  1  0.04752804  0.53539539  0.56672107  1.0
  P  P6556  1  0.04752804  0.67825253  0.56672107  1.0
  P  P6557  1  0.04752804  0.82110967  0.56672107  1.0
  P  P6558  1  0.04752804  0.96396682  0.56672107  1.0
  P  P6559  1  0.15863915  0.10682396  0.56672107  1.0
  P  P6560  1  0.15863915  0.24968110  0.56672107  1.0
  P  P6561  1  0.15863915  0.39253825  0.56672107  1.0
  P  P6562  1  0.15863915  0.53539539  0.56672107  1.0
  P  P6563  1  0.15863915  0.67825253  0.56672107  1.0
  P  P6564  1  0.15863915  0.82110967  0.56672107  1.0
  P  P6565  1  0.15863915  0.96396682  0.56672107  1.0
  P  P6566  1  0.26975026  0.10682396  0.56672107  1.0
  P  P6567  1  0.26975026  0.24968110  0.56672107  1.0
  P  P6568  1  0.26975026  0.39253825  0.56672107  1.0
  P  P6569  1  0.26975026  0.53539539  0.56672107  1.0
  P  P6570  1  0.26975026  0.67825253  0.56672107  1.0
  P  P6571  1  0.26975026  0.82110967  0.56672107  1.0
  P  P6572  1  0.26975026  0.96396682  0.56672107  1.0
  P  P6573  1  0.38086137  0.10682396  0.56672107  1.0
  P  P6574  1  0.38086137  0.24968110  0.56672107  1.0
  P  P6575  1  0.38086137  0.39253825  0.56672107  1.0
  P  P6576  1  0.38086137  0.53539539  0.56672107  1.0
  P  P6577  1  0.38086137  0.67825253  0.56672107  1.0
  P  P6578  1  0.38086137  0.82110967  0.56672107  1.0
  P  P6579  1  0.38086137  0.96396682  0.56672107  1.0
  P  P6580  1  0.49197248  0.10682396  0.56672107  1.0
  P  P6581  1  0.49197248  0.24968110  0.56672107  1.0
  P  P6582  1  0.49197248  0.39253825  0.56672107  1.0
  P  P6583  1  0.49197248  0.53539539  0.56672107  1.0
  P  P6584  1  0.49197248  0.67825253  0.56672107  1.0
  P  P6585  1  0.49197248  0.82110967  0.56672107  1.0
  P  P6586  1  0.49197248  0.96396682  0.56672107  1.0
  P  P6587  1  0.60308360  0.10682396  0.56672107  1.0
  P  P6588  1  0.60308360  0.24968110  0.56672107  1.0
  P  P6589  1  0.60308360  0.39253825  0.56672107  1.0
  P  P6590  1  0.60308360  0.53539539  0.56672107  1.0
  P  P6591  1  0.60308360  0.67825253  0.56672107  1.0
  P  P6592  1  0.60308360  0.82110967  0.56672107  1.0
  P  P6593  1  0.60308360  0.96396682  0.56672107  1.0
  P  P6594  1  0.71419471  0.10682396  0.56672107  1.0
  P  P6595  1  0.71419471  0.24968110  0.56672107  1.0
  P  P6596  1  0.71419471  0.39253825  0.56672107  1.0
  P  P6597  1  0.71419471  0.53539539  0.56672107  1.0
  P  P6598  1  0.71419471  0.67825253  0.56672107  1.0
  P  P6599  1  0.71419471  0.82110967  0.56672107  1.0
  P  P6600  1  0.71419471  0.96396682  0.56672107  1.0
  P  P6601  1  0.82530582  0.10682396  0.56672107  1.0
  P  P6602  1  0.82530582  0.24968110  0.56672107  1.0
  P  P6603  1  0.82530582  0.39253825  0.56672107  1.0
  P  P6604  1  0.82530582  0.53539539  0.56672107  1.0
  P  P6605  1  0.82530582  0.67825253  0.56672107  1.0
  P  P6606  1  0.82530582  0.82110967  0.56672107  1.0
  P  P6607  1  0.82530582  0.96396682  0.56672107  1.0
  P  P6608  1  0.93641693  0.10682396  0.56672107  1.0
  P  P6609  1  0.93641693  0.24968110  0.56672107  1.0
  P  P6610  1  0.93641693  0.39253825  0.56672107  1.0
  P  P6611  1  0.93641693  0.53539539  0.56672107  1.0
  P  P6612  1  0.93641693  0.67825253  0.56672107  1.0
  P  P6613  1  0.93641693  0.82110967  0.56672107  1.0
  P  P6614  1  0.93641693  0.96396682  0.56672107  1.0
  P  P6615  1  0.06869206  0.12042940  0.61434012  1.0
  P  P6616  1  0.06869206  0.26328654  0.61434012  1.0
  P  P6617  1  0.06869206  0.40614369  0.61434012  1.0
  P  P6618  1  0.06869206  0.54900083  0.61434012  1.0
  P  P6619  1  0.06869206  0.69185797  0.61434012  1.0
  P  P6620  1  0.06869206  0.83471512  0.61434012  1.0
  P  P6621  1  0.06869206  0.97757226  0.61434012  1.0
  P  P6622  1  0.17980317  0.12042940  0.61434012  1.0
  P  P6623  1  0.17980317  0.26328654  0.61434012  1.0
  P  P6624  1  0.17980317  0.40614369  0.61434012  1.0
  P  P6625  1  0.17980317  0.54900083  0.61434012  1.0
  P  P6626  1  0.17980317  0.69185797  0.61434012  1.0
  P  P6627  1  0.17980317  0.83471512  0.61434012  1.0
  P  P6628  1  0.17980317  0.97757226  0.61434012  1.0
  P  P6629  1  0.29091428  0.12042940  0.61434012  1.0
  P  P6630  1  0.29091428  0.26328654  0.61434012  1.0
  P  P6631  1  0.29091428  0.40614369  0.61434012  1.0
  P  P6632  1  0.29091428  0.54900083  0.61434012  1.0
  P  P6633  1  0.29091428  0.69185797  0.61434012  1.0
  P  P6634  1  0.29091428  0.83471512  0.61434012  1.0
  P  P6635  1  0.29091428  0.97757226  0.61434012  1.0
  P  P6636  1  0.40202539  0.12042940  0.61434012  1.0
  P  P6637  1  0.40202539  0.26328654  0.61434012  1.0
  P  P6638  1  0.40202539  0.40614369  0.61434012  1.0
  P  P6639  1  0.40202539  0.54900083  0.61434012  1.0
  P  P6640  1  0.40202539  0.69185797  0.61434012  1.0
  P  P6641  1  0.40202539  0.83471512  0.61434012  1.0
  P  P6642  1  0.40202539  0.97757226  0.61434012  1.0
  P  P6643  1  0.51313651  0.12042940  0.61434012  1.0
  P  P6644  1  0.51313651  0.26328654  0.61434012  1.0
  P  P6645  1  0.51313651  0.40614369  0.61434012  1.0
  P  P6646  1  0.51313651  0.54900083  0.61434012  1.0
  P  P6647  1  0.51313651  0.69185797  0.61434012  1.0
  P  P6648  1  0.51313651  0.83471512  0.61434012  1.0
  P  P6649  1  0.51313651  0.97757226  0.61434012  1.0
  P  P6650  1  0.62424762  0.12042940  0.61434012  1.0
  P  P6651  1  0.62424762  0.26328654  0.61434012  1.0
  P  P6652  1  0.62424762  0.40614369  0.61434012  1.0
  P  P6653  1  0.62424762  0.54900083  0.61434012  1.0
  P  P6654  1  0.62424762  0.69185797  0.61434012  1.0
  P  P6655  1  0.62424762  0.83471512  0.61434012  1.0
  P  P6656  1  0.62424762  0.97757226  0.61434012  1.0
  P  P6657  1  0.73535873  0.12042940  0.61434012  1.0
  P  P6658  1  0.73535873  0.26328654  0.61434012  1.0
  P  P6659  1  0.73535873  0.40614369  0.61434012  1.0
  P  P6660  1  0.73535873  0.54900083  0.61434012  1.0
  P  P6661  1  0.73535873  0.69185797  0.61434012  1.0
  P  P6662  1  0.73535873  0.83471512  0.61434012  1.0
  P  P6663  1  0.73535873  0.97757226  0.61434012  1.0
  P  P6664  1  0.84646984  0.12042940  0.61434012  1.0
  P  P6665  1  0.84646984  0.26328654  0.61434012  1.0
  P  P6666  1  0.84646984  0.40614369  0.61434012  1.0
  P  P6667  1  0.84646984  0.54900083  0.61434012  1.0
  P  P6668  1  0.84646984  0.69185797  0.61434012  1.0
  P  P6669  1  0.84646984  0.83471512  0.61434012  1.0
  P  P6670  1  0.84646984  0.97757226  0.61434012  1.0
  P  P6671  1  0.95758095  0.12042940  0.61434012  1.0
  P  P6672  1  0.95758095  0.26328654  0.61434012  1.0
  P  P6673  1  0.95758095  0.40614369  0.61434012  1.0
  P  P6674  1  0.95758095  0.54900083  0.61434012  1.0
  P  P6675  1  0.95758095  0.69185797  0.61434012  1.0
  P  P6676  1  0.95758095  0.83471512  0.61434012  1.0
  P  P6677  1  0.95758095  0.97757226  0.61434012  1.0
  P  P6678  1  0.02636402  0.09321852  0.51910203  1.0
  P  P6679  1  0.02636402  0.23607566  0.51910203  1.0
  P  P6680  1  0.02636402  0.37893280  0.51910203  1.0
  P  P6681  1  0.02636402  0.52178995  0.51910203  1.0
  P  P6682  1  0.02636402  0.66464709  0.51910203  1.0
  P  P6683  1  0.02636402  0.80750423  0.51910203  1.0
  P  P6684  1  0.02636402  0.95036137  0.51910203  1.0
  P  P6685  1  0.13747513  0.09321852  0.51910203  1.0
  P  P6686  1  0.13747513  0.23607566  0.51910203  1.0
  P  P6687  1  0.13747513  0.37893280  0.51910203  1.0
  P  P6688  1  0.13747513  0.52178995  0.51910203  1.0
  P  P6689  1  0.13747513  0.66464709  0.51910203  1.0
  P  P6690  1  0.13747513  0.80750423  0.51910203  1.0
  P  P6691  1  0.13747513  0.95036137  0.51910203  1.0
  P  P6692  1  0.24858624  0.09321852  0.51910203  1.0
  P  P6693  1  0.24858624  0.23607566  0.51910203  1.0
  P  P6694  1  0.24858624  0.37893280  0.51910203  1.0
  P  P6695  1  0.24858624  0.52178995  0.51910203  1.0
  P  P6696  1  0.24858624  0.66464709  0.51910203  1.0
  P  P6697  1  0.24858624  0.80750423  0.51910203  1.0
  P  P6698  1  0.24858624  0.95036137  0.51910203  1.0
  P  P6699  1  0.35969735  0.09321852  0.51910203  1.0
  P  P6700  1  0.35969735  0.23607566  0.51910203  1.0
  P  P6701  1  0.35969735  0.37893280  0.51910203  1.0
  P  P6702  1  0.35969735  0.52178995  0.51910203  1.0
  P  P6703  1  0.35969735  0.66464709  0.51910203  1.0
  P  P6704  1  0.35969735  0.80750423  0.51910203  1.0
  P  P6705  1  0.35969735  0.95036137  0.51910203  1.0
  P  P6706  1  0.47080846  0.09321852  0.51910203  1.0
  P  P6707  1  0.47080846  0.23607566  0.51910203  1.0
  P  P6708  1  0.47080846  0.37893280  0.51910203  1.0
  P  P6709  1  0.47080846  0.52178995  0.51910203  1.0
  P  P6710  1  0.47080846  0.66464709  0.51910203  1.0
  P  P6711  1  0.47080846  0.80750423  0.51910203  1.0
  P  P6712  1  0.47080846  0.95036137  0.51910203  1.0
  P  P6713  1  0.58191957  0.09321852  0.51910203  1.0
  P  P6714  1  0.58191957  0.23607566  0.51910203  1.0
  P  P6715  1  0.58191957  0.37893280  0.51910203  1.0
  P  P6716  1  0.58191957  0.52178995  0.51910203  1.0
  P  P6717  1  0.58191957  0.66464709  0.51910203  1.0
  P  P6718  1  0.58191957  0.80750423  0.51910203  1.0
  P  P6719  1  0.58191957  0.95036137  0.51910203  1.0
  P  P6720  1  0.69303069  0.09321852  0.51910203  1.0
  P  P6721  1  0.69303069  0.23607566  0.51910203  1.0
  P  P6722  1  0.69303069  0.37893280  0.51910203  1.0
  P  P6723  1  0.69303069  0.52178995  0.51910203  1.0
  P  P6724  1  0.69303069  0.66464709  0.51910203  1.0
  P  P6725  1  0.69303069  0.80750423  0.51910203  1.0
  P  P6726  1  0.69303069  0.95036137  0.51910203  1.0
  P  P6727  1  0.80414180  0.09321852  0.51910203  1.0
  P  P6728  1  0.80414180  0.23607566  0.51910203  1.0
  P  P6729  1  0.80414180  0.37893280  0.51910203  1.0
  P  P6730  1  0.80414180  0.52178995  0.51910203  1.0
  P  P6731  1  0.80414180  0.66464709  0.51910203  1.0
  P  P6732  1  0.80414180  0.80750423  0.51910203  1.0
  P  P6733  1  0.80414180  0.95036137  0.51910203  1.0
  P  P6734  1  0.91525291  0.09321852  0.51910203  1.0
  P  P6735  1  0.91525291  0.23607566  0.51910203  1.0
  P  P6736  1  0.91525291  0.37893280  0.51910203  1.0
  P  P6737  1  0.91525291  0.52178995  0.51910203  1.0
  P  P6738  1  0.91525291  0.66464709  0.51910203  1.0
  P  P6739  1  0.91525291  0.80750423  0.51910203  1.0
  P  P6740  1  0.91525291  0.95036137  0.51910203  1.0
  P  P6741  1  0.06026093  0.08649978  0.53523262  1.0
  P  P6742  1  0.06026093  0.22935693  0.53523262  1.0
  P  P6743  1  0.06026093  0.37221407  0.53523262  1.0
  P  P6744  1  0.06026093  0.51507121  0.53523262  1.0
  P  P6745  1  0.06026093  0.65792835  0.53523262  1.0
  P  P6746  1  0.06026093  0.80078550  0.53523262  1.0
  P  P6747  1  0.06026093  0.94364264  0.53523262  1.0
  P  P6748  1  0.17137204  0.08649978  0.53523262  1.0
  P  P6749  1  0.17137204  0.22935693  0.53523262  1.0
  P  P6750  1  0.17137204  0.37221407  0.53523262  1.0
  P  P6751  1  0.17137204  0.51507121  0.53523262  1.0
  P  P6752  1  0.17137204  0.65792835  0.53523262  1.0
  P  P6753  1  0.17137204  0.80078550  0.53523262  1.0
  P  P6754  1  0.17137204  0.94364264  0.53523262  1.0
  P  P6755  1  0.28248315  0.08649978  0.53523262  1.0
  P  P6756  1  0.28248315  0.22935693  0.53523262  1.0
  P  P6757  1  0.28248315  0.37221407  0.53523262  1.0
  P  P6758  1  0.28248315  0.51507121  0.53523262  1.0
  P  P6759  1  0.28248315  0.65792835  0.53523262  1.0
  P  P6760  1  0.28248315  0.80078550  0.53523262  1.0
  P  P6761  1  0.28248315  0.94364264  0.53523262  1.0
  P  P6762  1  0.39359426  0.08649978  0.53523262  1.0
  P  P6763  1  0.39359426  0.22935693  0.53523262  1.0
  P  P6764  1  0.39359426  0.37221407  0.53523262  1.0
  P  P6765  1  0.39359426  0.51507121  0.53523262  1.0
  P  P6766  1  0.39359426  0.65792835  0.53523262  1.0
  P  P6767  1  0.39359426  0.80078550  0.53523262  1.0
  P  P6768  1  0.39359426  0.94364264  0.53523262  1.0
  P  P6769  1  0.50470537  0.08649978  0.53523262  1.0
  P  P6770  1  0.50470537  0.22935693  0.53523262  1.0
  P  P6771  1  0.50470537  0.37221407  0.53523262  1.0
  P  P6772  1  0.50470537  0.51507121  0.53523262  1.0
  P  P6773  1  0.50470537  0.65792835  0.53523262  1.0
  P  P6774  1  0.50470537  0.80078550  0.53523262  1.0
  P  P6775  1  0.50470537  0.94364264  0.53523262  1.0
  P  P6776  1  0.61581648  0.08649978  0.53523262  1.0
  P  P6777  1  0.61581648  0.22935693  0.53523262  1.0
  P  P6778  1  0.61581648  0.37221407  0.53523262  1.0
  P  P6779  1  0.61581648  0.51507121  0.53523262  1.0
  P  P6780  1  0.61581648  0.65792835  0.53523262  1.0
  P  P6781  1  0.61581648  0.80078550  0.53523262  1.0
  P  P6782  1  0.61581648  0.94364264  0.53523262  1.0
  P  P6783  1  0.72692759  0.08649978  0.53523262  1.0
  P  P6784  1  0.72692759  0.22935693  0.53523262  1.0
  P  P6785  1  0.72692759  0.37221407  0.53523262  1.0
  P  P6786  1  0.72692759  0.51507121  0.53523262  1.0
  P  P6787  1  0.72692759  0.65792835  0.53523262  1.0
  P  P6788  1  0.72692759  0.80078550  0.53523262  1.0
  P  P6789  1  0.72692759  0.94364264  0.53523262  1.0
  P  P6790  1  0.83803870  0.08649978  0.53523262  1.0
  P  P6791  1  0.83803870  0.22935693  0.53523262  1.0
  P  P6792  1  0.83803870  0.37221407  0.53523262  1.0
  P  P6793  1  0.83803870  0.51507121  0.53523262  1.0
  P  P6794  1  0.83803870  0.65792835  0.53523262  1.0
  P  P6795  1  0.83803870  0.80078550  0.53523262  1.0
  P  P6796  1  0.83803870  0.94364264  0.53523262  1.0
  P  P6797  1  0.94914982  0.08649978  0.53523262  1.0
  P  P6798  1  0.94914982  0.22935693  0.53523262  1.0
  P  P6799  1  0.94914982  0.37221407  0.53523262  1.0
  P  P6800  1  0.94914982  0.51507121  0.53523262  1.0
  P  P6801  1  0.94914982  0.65792835  0.53523262  1.0
  P  P6802  1  0.94914982  0.80078550  0.53523262  1.0
  P  P6803  1  0.94914982  0.94364264  0.53523262  1.0
  P  P6804  1  0.08142495  0.10010523  0.58285167  1.0
  P  P6805  1  0.08142495  0.24296237  0.58285167  1.0
  P  P6806  1  0.08142495  0.38581951  0.58285167  1.0
  P  P6807  1  0.08142495  0.52867665  0.58285167  1.0
  P  P6808  1  0.08142495  0.67153380  0.58285167  1.0
  P  P6809  1  0.08142495  0.81439094  0.58285167  1.0
  P  P6810  1  0.08142495  0.95724808  0.58285167  1.0
  P  P6811  1  0.19253606  0.10010523  0.58285167  1.0
  P  P6812  1  0.19253606  0.24296237  0.58285167  1.0
  P  P6813  1  0.19253606  0.38581951  0.58285167  1.0
  P  P6814  1  0.19253606  0.52867665  0.58285167  1.0
  P  P6815  1  0.19253606  0.67153380  0.58285167  1.0
  P  P6816  1  0.19253606  0.81439094  0.58285167  1.0
  P  P6817  1  0.19253606  0.95724808  0.58285167  1.0
  P  P6818  1  0.30364717  0.10010523  0.58285167  1.0
  P  P6819  1  0.30364717  0.24296237  0.58285167  1.0
  P  P6820  1  0.30364717  0.38581951  0.58285167  1.0
  P  P6821  1  0.30364717  0.52867665  0.58285167  1.0
  P  P6822  1  0.30364717  0.67153380  0.58285167  1.0
  P  P6823  1  0.30364717  0.81439094  0.58285167  1.0
  P  P6824  1  0.30364717  0.95724808  0.58285167  1.0
  P  P6825  1  0.41475828  0.10010523  0.58285167  1.0
  P  P6826  1  0.41475828  0.24296237  0.58285167  1.0
  P  P6827  1  0.41475828  0.38581951  0.58285167  1.0
  P  P6828  1  0.41475828  0.52867665  0.58285167  1.0
  P  P6829  1  0.41475828  0.67153380  0.58285167  1.0
  P  P6830  1  0.41475828  0.81439094  0.58285167  1.0
  P  P6831  1  0.41475828  0.95724808  0.58285167  1.0
  P  P6832  1  0.52586939  0.10010523  0.58285167  1.0
  P  P6833  1  0.52586939  0.24296237  0.58285167  1.0
  P  P6834  1  0.52586939  0.38581951  0.58285167  1.0
  P  P6835  1  0.52586939  0.52867665  0.58285167  1.0
  P  P6836  1  0.52586939  0.67153380  0.58285167  1.0
  P  P6837  1  0.52586939  0.81439094  0.58285167  1.0
  P  P6838  1  0.52586939  0.95724808  0.58285167  1.0
  P  P6839  1  0.63698050  0.10010523  0.58285167  1.0
  P  P6840  1  0.63698050  0.24296237  0.58285167  1.0
  P  P6841  1  0.63698050  0.38581951  0.58285167  1.0
  P  P6842  1  0.63698050  0.52867665  0.58285167  1.0
  P  P6843  1  0.63698050  0.67153380  0.58285167  1.0
  P  P6844  1  0.63698050  0.81439094  0.58285167  1.0
  P  P6845  1  0.63698050  0.95724808  0.58285167  1.0
  P  P6846  1  0.74809161  0.10010523  0.58285167  1.0
  P  P6847  1  0.74809161  0.24296237  0.58285167  1.0
  P  P6848  1  0.74809161  0.38581951  0.58285167  1.0
  P  P6849  1  0.74809161  0.52867665  0.58285167  1.0
  P  P6850  1  0.74809161  0.67153380  0.58285167  1.0
  P  P6851  1  0.74809161  0.81439094  0.58285167  1.0
  P  P6852  1  0.74809161  0.95724808  0.58285167  1.0
  P  P6853  1  0.85920273  0.10010523  0.58285167  1.0
  P  P6854  1  0.85920273  0.24296237  0.58285167  1.0
  P  P6855  1  0.85920273  0.38581951  0.58285167  1.0
  P  P6856  1  0.85920273  0.52867665  0.58285167  1.0
  P  P6857  1  0.85920273  0.67153380  0.58285167  1.0
  P  P6858  1  0.85920273  0.81439094  0.58285167  1.0
  P  P6859  1  0.85920273  0.95724808  0.58285167  1.0
  P  P6860  1  0.97031384  0.10010523  0.58285167  1.0
  P  P6861  1  0.97031384  0.24296237  0.58285167  1.0
  P  P6862  1  0.97031384  0.38581951  0.58285167  1.0
  P  P6863  1  0.97031384  0.52867665  0.58285167  1.0
  P  P6864  1  0.97031384  0.67153380  0.58285167  1.0
  P  P6865  1  0.97031384  0.81439094  0.58285167  1.0
  P  P6866  1  0.97031384  0.95724808  0.58285167  1.0
  P  P6867  1  0.10258897  0.11371067  0.63047072  1.0
  P  P6868  1  0.10258897  0.25656781  0.63047072  1.0
  P  P6869  1  0.10258897  0.39942495  0.63047072  1.0
  P  P6870  1  0.10258897  0.54228210  0.63047072  1.0
  P  P6871  1  0.10258897  0.68513924  0.63047072  1.0
  P  P6872  1  0.10258897  0.82799638  0.63047072  1.0
  P  P6873  1  0.10258897  0.97085352  0.63047072  1.0
  P  P6874  1  0.21370008  0.11371067  0.63047072  1.0
  P  P6875  1  0.21370008  0.25656781  0.63047072  1.0
  P  P6876  1  0.21370008  0.39942495  0.63047072  1.0
  P  P6877  1  0.21370008  0.54228210  0.63047072  1.0
  P  P6878  1  0.21370008  0.68513924  0.63047072  1.0
  P  P6879  1  0.21370008  0.82799638  0.63047072  1.0
  P  P6880  1  0.21370008  0.97085352  0.63047072  1.0
  P  P6881  1  0.32481119  0.11371067  0.63047072  1.0
  P  P6882  1  0.32481119  0.25656781  0.63047072  1.0
  P  P6883  1  0.32481119  0.39942495  0.63047072  1.0
  P  P6884  1  0.32481119  0.54228210  0.63047072  1.0
  P  P6885  1  0.32481119  0.68513924  0.63047072  1.0
  P  P6886  1  0.32481119  0.82799638  0.63047072  1.0
  P  P6887  1  0.32481119  0.97085352  0.63047072  1.0
  P  P6888  1  0.43592230  0.11371067  0.63047072  1.0
  P  P6889  1  0.43592230  0.25656781  0.63047072  1.0
  P  P6890  1  0.43592230  0.39942495  0.63047072  1.0
  P  P6891  1  0.43592230  0.54228210  0.63047072  1.0
  P  P6892  1  0.43592230  0.68513924  0.63047072  1.0
  P  P6893  1  0.43592230  0.82799638  0.63047072  1.0
  P  P6894  1  0.43592230  0.97085352  0.63047072  1.0
  P  P6895  1  0.54703341  0.11371067  0.63047072  1.0
  P  P6896  1  0.54703341  0.25656781  0.63047072  1.0
  P  P6897  1  0.54703341  0.39942495  0.63047072  1.0
  P  P6898  1  0.54703341  0.54228210  0.63047072  1.0
  P  P6899  1  0.54703341  0.68513924  0.63047072  1.0
  P  P6900  1  0.54703341  0.82799638  0.63047072  1.0
  P  P6901  1  0.54703341  0.97085352  0.63047072  1.0
  P  P6902  1  0.65814452  0.11371067  0.63047072  1.0
  P  P6903  1  0.65814452  0.25656781  0.63047072  1.0
  P  P6904  1  0.65814452  0.39942495  0.63047072  1.0
  P  P6905  1  0.65814452  0.54228210  0.63047072  1.0
  P  P6906  1  0.65814452  0.68513924  0.63047072  1.0
  P  P6907  1  0.65814452  0.82799638  0.63047072  1.0
  P  P6908  1  0.65814452  0.97085352  0.63047072  1.0
  P  P6909  1  0.76925564  0.11371067  0.63047072  1.0
  P  P6910  1  0.76925564  0.25656781  0.63047072  1.0
  P  P6911  1  0.76925564  0.39942495  0.63047072  1.0
  P  P6912  1  0.76925564  0.54228210  0.63047072  1.0
  P  P6913  1  0.76925564  0.68513924  0.63047072  1.0
  P  P6914  1  0.76925564  0.82799638  0.63047072  1.0
  P  P6915  1  0.76925564  0.97085352  0.63047072  1.0
  P  P6916  1  0.88036675  0.11371067  0.63047072  1.0
  P  P6917  1  0.88036675  0.25656781  0.63047072  1.0
  P  P6918  1  0.88036675  0.39942495  0.63047072  1.0
  P  P6919  1  0.88036675  0.54228210  0.63047072  1.0
  P  P6920  1  0.88036675  0.68513924  0.63047072  1.0
  P  P6921  1  0.88036675  0.82799638  0.63047072  1.0
  P  P6922  1  0.88036675  0.97085352  0.63047072  1.0
  P  P6923  1  0.99147786  0.11371067  0.63047072  1.0
  P  P6924  1  0.99147786  0.25656781  0.63047072  1.0
  P  P6925  1  0.99147786  0.39942495  0.63047072  1.0
  P  P6926  1  0.99147786  0.54228210  0.63047072  1.0
  P  P6927  1  0.99147786  0.68513924  0.63047072  1.0
  P  P6928  1  0.99147786  0.82799638  0.63047072  1.0
  P  P6929  1  0.99147786  0.97085352  0.63047072  1.0
  P  P6930  1  0.10476174  0.02514672  0.57049690  1.0
  P  P6931  1  0.10476174  0.16800386  0.57049690  1.0
  P  P6932  1  0.10476174  0.31086100  0.57049690  1.0
  P  P6933  1  0.10476174  0.45371815  0.57049690  1.0
  P  P6934  1  0.10476174  0.59657529  0.57049690  1.0
  P  P6935  1  0.10476174  0.73943243  0.57049690  1.0
  P  P6936  1  0.10476174  0.88228958  0.57049690  1.0
  P  P6937  1  0.21587285  0.02514672  0.57049690  1.0
  P  P6938  1  0.21587285  0.16800386  0.57049690  1.0
  P  P6939  1  0.21587285  0.31086100  0.57049690  1.0
  P  P6940  1  0.21587285  0.45371815  0.57049690  1.0
  P  P6941  1  0.21587285  0.59657529  0.57049690  1.0
  P  P6942  1  0.21587285  0.73943243  0.57049690  1.0
  P  P6943  1  0.21587285  0.88228958  0.57049690  1.0
  P  P6944  1  0.32698396  0.02514672  0.57049690  1.0
  P  P6945  1  0.32698396  0.16800386  0.57049690  1.0
  P  P6946  1  0.32698396  0.31086100  0.57049690  1.0
  P  P6947  1  0.32698396  0.45371815  0.57049690  1.0
  P  P6948  1  0.32698396  0.59657529  0.57049690  1.0
  P  P6949  1  0.32698396  0.73943243  0.57049690  1.0
  P  P6950  1  0.32698396  0.88228958  0.57049690  1.0
  P  P6951  1  0.43809507  0.02514672  0.57049690  1.0
  P  P6952  1  0.43809507  0.16800386  0.57049690  1.0
  P  P6953  1  0.43809507  0.31086100  0.57049690  1.0
  P  P6954  1  0.43809507  0.45371815  0.57049690  1.0
  P  P6955  1  0.43809507  0.59657529  0.57049690  1.0
  P  P6956  1  0.43809507  0.73943243  0.57049690  1.0
  P  P6957  1  0.43809507  0.88228958  0.57049690  1.0
  P  P6958  1  0.54920618  0.02514672  0.57049690  1.0
  P  P6959  1  0.54920618  0.16800386  0.57049690  1.0
  P  P6960  1  0.54920618  0.31086100  0.57049690  1.0
  P  P6961  1  0.54920618  0.45371815  0.57049690  1.0
  P  P6962  1  0.54920618  0.59657529  0.57049690  1.0
  P  P6963  1  0.54920618  0.73943243  0.57049690  1.0
  P  P6964  1  0.54920618  0.88228958  0.57049690  1.0
  P  P6965  1  0.66031730  0.02514672  0.57049690  1.0
  P  P6966  1  0.66031730  0.16800386  0.57049690  1.0
  P  P6967  1  0.66031730  0.31086100  0.57049690  1.0
  P  P6968  1  0.66031730  0.45371815  0.57049690  1.0
  P  P6969  1  0.66031730  0.59657529  0.57049690  1.0
  P  P6970  1  0.66031730  0.73943243  0.57049690  1.0
  P  P6971  1  0.66031730  0.88228958  0.57049690  1.0
  P  P6972  1  0.77142841  0.02514672  0.57049690  1.0
  P  P6973  1  0.77142841  0.16800386  0.57049690  1.0
  P  P6974  1  0.77142841  0.31086100  0.57049690  1.0
  P  P6975  1  0.77142841  0.45371815  0.57049690  1.0
  P  P6976  1  0.77142841  0.59657529  0.57049690  1.0
  P  P6977  1  0.77142841  0.73943243  0.57049690  1.0
  P  P6978  1  0.77142841  0.88228958  0.57049690  1.0
  P  P6979  1  0.88253952  0.02514672  0.57049690  1.0
  P  P6980  1  0.88253952  0.16800386  0.57049690  1.0
  P  P6981  1  0.88253952  0.31086100  0.57049690  1.0
  P  P6982  1  0.88253952  0.45371815  0.57049690  1.0
  P  P6983  1  0.88253952  0.59657529  0.57049690  1.0
  P  P6984  1  0.88253952  0.73943243  0.57049690  1.0
  P  P6985  1  0.88253952  0.88228958  0.57049690  1.0
  P  P6986  1  0.99365063  0.02514672  0.57049690  1.0
  P  P6987  1  0.99365063  0.16800386  0.57049690  1.0
  P  P6988  1  0.99365063  0.31086100  0.57049690  1.0
  P  P6989  1  0.99365063  0.45371815  0.57049690  1.0
  P  P6990  1  0.99365063  0.59657529  0.57049690  1.0
  P  P6991  1  0.99365063  0.73943243  0.57049690  1.0
  P  P6992  1  0.99365063  0.88228958  0.57049690  1.0
  P  P6993  1  0.01481465  0.03875216  0.61811595  1.0
  P  P6994  1  0.01481465  0.18160930  0.61811595  1.0
  P  P6995  1  0.01481465  0.32446645  0.61811595  1.0
  P  P6996  1  0.01481465  0.46732359  0.61811595  1.0
  P  P6997  1  0.01481465  0.61018073  0.61811595  1.0
  P  P6998  1  0.01481465  0.75303788  0.61811595  1.0
  P  P6999  1  0.01481465  0.89589502  0.61811595  1.0
  P  P7000  1  0.12592576  0.03875216  0.61811595  1.0
  P  P7001  1  0.12592576  0.18160930  0.61811595  1.0
  P  P7002  1  0.12592576  0.32446645  0.61811595  1.0
  P  P7003  1  0.12592576  0.46732359  0.61811595  1.0
  P  P7004  1  0.12592576  0.61018073  0.61811595  1.0
  P  P7005  1  0.12592576  0.75303788  0.61811595  1.0
  P  P7006  1  0.12592576  0.89589502  0.61811595  1.0
  P  P7007  1  0.23703687  0.03875216  0.61811595  1.0
  P  P7008  1  0.23703687  0.18160930  0.61811595  1.0
  P  P7009  1  0.23703687  0.32446645  0.61811595  1.0
  P  P7010  1  0.23703687  0.46732359  0.61811595  1.0
  P  P7011  1  0.23703687  0.61018073  0.61811595  1.0
  P  P7012  1  0.23703687  0.75303788  0.61811595  1.0
  P  P7013  1  0.23703687  0.89589502  0.61811595  1.0
  P  P7014  1  0.34814798  0.03875216  0.61811595  1.0
  P  P7015  1  0.34814798  0.18160930  0.61811595  1.0
  P  P7016  1  0.34814798  0.32446645  0.61811595  1.0
  P  P7017  1  0.34814798  0.46732359  0.61811595  1.0
  P  P7018  1  0.34814798  0.61018073  0.61811595  1.0
  P  P7019  1  0.34814798  0.75303788  0.61811595  1.0
  P  P7020  1  0.34814798  0.89589502  0.61811595  1.0
  P  P7021  1  0.45925909  0.03875216  0.61811595  1.0
  P  P7022  1  0.45925909  0.18160930  0.61811595  1.0
  P  P7023  1  0.45925909  0.32446645  0.61811595  1.0
  P  P7024  1  0.45925909  0.46732359  0.61811595  1.0
  P  P7025  1  0.45925909  0.61018073  0.61811595  1.0
  P  P7026  1  0.45925909  0.75303788  0.61811595  1.0
  P  P7027  1  0.45925909  0.89589502  0.61811595  1.0
  P  P7028  1  0.57037021  0.03875216  0.61811595  1.0
  P  P7029  1  0.57037021  0.18160930  0.61811595  1.0
  P  P7030  1  0.57037021  0.32446645  0.61811595  1.0
  P  P7031  1  0.57037021  0.46732359  0.61811595  1.0
  P  P7032  1  0.57037021  0.61018073  0.61811595  1.0
  P  P7033  1  0.57037021  0.75303788  0.61811595  1.0
  P  P7034  1  0.57037021  0.89589502  0.61811595  1.0
  P  P7035  1  0.68148132  0.03875216  0.61811595  1.0
  P  P7036  1  0.68148132  0.18160930  0.61811595  1.0
  P  P7037  1  0.68148132  0.32446645  0.61811595  1.0
  P  P7038  1  0.68148132  0.46732359  0.61811595  1.0
  P  P7039  1  0.68148132  0.61018073  0.61811595  1.0
  P  P7040  1  0.68148132  0.75303788  0.61811595  1.0
  P  P7041  1  0.68148132  0.89589502  0.61811595  1.0
  P  P7042  1  0.79259243  0.03875216  0.61811595  1.0
  P  P7043  1  0.79259243  0.18160930  0.61811595  1.0
  P  P7044  1  0.79259243  0.32446645  0.61811595  1.0
  P  P7045  1  0.79259243  0.46732359  0.61811595  1.0
  P  P7046  1  0.79259243  0.61018073  0.61811595  1.0
  P  P7047  1  0.79259243  0.75303788  0.61811595  1.0
  P  P7048  1  0.79259243  0.89589502  0.61811595  1.0
  P  P7049  1  0.90370354  0.03875216  0.61811595  1.0
  P  P7050  1  0.90370354  0.18160930  0.61811595  1.0
  P  P7051  1  0.90370354  0.32446645  0.61811595  1.0
  P  P7052  1  0.90370354  0.46732359  0.61811595  1.0
  P  P7053  1  0.90370354  0.61018073  0.61811595  1.0
  P  P7054  1  0.90370354  0.75303788  0.61811595  1.0
  P  P7055  1  0.90370354  0.89589502  0.61811595  1.0
  P  P7056  1  0.08359772  0.01154128  0.52287785  1.0
  P  P7057  1  0.08359772  0.15439842  0.52287785  1.0
  P  P7058  1  0.08359772  0.29725556  0.52287785  1.0
  P  P7059  1  0.08359772  0.44011271  0.52287785  1.0
  P  P7060  1  0.08359772  0.58296985  0.52287785  1.0
  P  P7061  1  0.08359772  0.72582699  0.52287785  1.0
  P  P7062  1  0.08359772  0.86868413  0.52287785  1.0
  P  P7063  1  0.19470883  0.01154128  0.52287785  1.0
  P  P7064  1  0.19470883  0.15439842  0.52287785  1.0
  P  P7065  1  0.19470883  0.29725556  0.52287785  1.0
  P  P7066  1  0.19470883  0.44011271  0.52287785  1.0
  P  P7067  1  0.19470883  0.58296985  0.52287785  1.0
  P  P7068  1  0.19470883  0.72582699  0.52287785  1.0
  P  P7069  1  0.19470883  0.86868413  0.52287785  1.0
  P  P7070  1  0.30581994  0.01154128  0.52287785  1.0
  P  P7071  1  0.30581994  0.15439842  0.52287785  1.0
  P  P7072  1  0.30581994  0.29725556  0.52287785  1.0
  P  P7073  1  0.30581994  0.44011271  0.52287785  1.0
  P  P7074  1  0.30581994  0.58296985  0.52287785  1.0
  P  P7075  1  0.30581994  0.72582699  0.52287785  1.0
  P  P7076  1  0.30581994  0.86868413  0.52287785  1.0
  P  P7077  1  0.41693105  0.01154128  0.52287785  1.0
  P  P7078  1  0.41693105  0.15439842  0.52287785  1.0
  P  P7079  1  0.41693105  0.29725556  0.52287785  1.0
  P  P7080  1  0.41693105  0.44011271  0.52287785  1.0
  P  P7081  1  0.41693105  0.58296985  0.52287785  1.0
  P  P7082  1  0.41693105  0.72582699  0.52287785  1.0
  P  P7083  1  0.41693105  0.86868413  0.52287785  1.0
  P  P7084  1  0.52804216  0.01154128  0.52287785  1.0
  P  P7085  1  0.52804216  0.15439842  0.52287785  1.0
  P  P7086  1  0.52804216  0.29725556  0.52287785  1.0
  P  P7087  1  0.52804216  0.44011271  0.52287785  1.0
  P  P7088  1  0.52804216  0.58296985  0.52287785  1.0
  P  P7089  1  0.52804216  0.72582699  0.52287785  1.0
  P  P7090  1  0.52804216  0.86868413  0.52287785  1.0
  P  P7091  1  0.63915327  0.01154128  0.52287785  1.0
  P  P7092  1  0.63915327  0.15439842  0.52287785  1.0
  P  P7093  1  0.63915327  0.29725556  0.52287785  1.0
  P  P7094  1  0.63915327  0.44011271  0.52287785  1.0
  P  P7095  1  0.63915327  0.58296985  0.52287785  1.0
  P  P7096  1  0.63915327  0.72582699  0.52287785  1.0
  P  P7097  1  0.63915327  0.86868413  0.52287785  1.0
  P  P7098  1  0.75026439  0.01154128  0.52287785  1.0
  P  P7099  1  0.75026439  0.15439842  0.52287785  1.0
  P  P7100  1  0.75026439  0.29725556  0.52287785  1.0
  P  P7101  1  0.75026439  0.44011271  0.52287785  1.0
  P  P7102  1  0.75026439  0.58296985  0.52287785  1.0
  P  P7103  1  0.75026439  0.72582699  0.52287785  1.0
  P  P7104  1  0.75026439  0.86868413  0.52287785  1.0
  P  P7105  1  0.86137550  0.01154128  0.52287785  1.0
  P  P7106  1  0.86137550  0.15439842  0.52287785  1.0
  P  P7107  1  0.86137550  0.29725556  0.52287785  1.0
  P  P7108  1  0.86137550  0.44011271  0.52287785  1.0
  P  P7109  1  0.86137550  0.58296985  0.52287785  1.0
  P  P7110  1  0.86137550  0.72582699  0.52287785  1.0
  P  P7111  1  0.86137550  0.86868413  0.52287785  1.0
  P  P7112  1  0.97248661  0.01154128  0.52287785  1.0
  P  P7113  1  0.97248661  0.15439842  0.52287785  1.0
  P  P7114  1  0.97248661  0.29725556  0.52287785  1.0
  P  P7115  1  0.97248661  0.44011271  0.52287785  1.0
  P  P7116  1  0.97248661  0.58296985  0.52287785  1.0
  P  P7117  1  0.97248661  0.72582699  0.52287785  1.0
  P  P7118  1  0.97248661  0.86868413  0.52287785  1.0
  P  P7119  1  0.00302723  0.02531988  0.53145680  1.0
  P  P7120  1  0.00302723  0.16817702  0.53145680  1.0
  P  P7121  1  0.00302723  0.31103417  0.53145680  1.0
  P  P7122  1  0.00302723  0.45389131  0.53145680  1.0
  P  P7123  1  0.00302723  0.59674845  0.53145680  1.0
  P  P7124  1  0.00302723  0.73960560  0.53145680  1.0
  P  P7125  1  0.00302723  0.88246274  0.53145680  1.0
  P  P7126  1  0.11413834  0.02531988  0.53145680  1.0
  P  P7127  1  0.11413834  0.16817702  0.53145680  1.0
  P  P7128  1  0.11413834  0.31103417  0.53145680  1.0
  P  P7129  1  0.11413834  0.45389131  0.53145680  1.0
  P  P7130  1  0.11413834  0.59674845  0.53145680  1.0
  P  P7131  1  0.11413834  0.73960560  0.53145680  1.0
  P  P7132  1  0.11413834  0.88246274  0.53145680  1.0
  P  P7133  1  0.22524945  0.02531988  0.53145680  1.0
  P  P7134  1  0.22524945  0.16817702  0.53145680  1.0
  P  P7135  1  0.22524945  0.31103417  0.53145680  1.0
  P  P7136  1  0.22524945  0.45389131  0.53145680  1.0
  P  P7137  1  0.22524945  0.59674845  0.53145680  1.0
  P  P7138  1  0.22524945  0.73960560  0.53145680  1.0
  P  P7139  1  0.22524945  0.88246274  0.53145680  1.0
  P  P7140  1  0.33636056  0.02531988  0.53145680  1.0
  P  P7141  1  0.33636056  0.16817702  0.53145680  1.0
  P  P7142  1  0.33636056  0.31103417  0.53145680  1.0
  P  P7143  1  0.33636056  0.45389131  0.53145680  1.0
  P  P7144  1  0.33636056  0.59674845  0.53145680  1.0
  P  P7145  1  0.33636056  0.73960560  0.53145680  1.0
  P  P7146  1  0.33636056  0.88246274  0.53145680  1.0
  P  P7147  1  0.44747167  0.02531988  0.53145680  1.0
  P  P7148  1  0.44747167  0.16817702  0.53145680  1.0
  P  P7149  1  0.44747167  0.31103417  0.53145680  1.0
  P  P7150  1  0.44747167  0.45389131  0.53145680  1.0
  P  P7151  1  0.44747167  0.59674845  0.53145680  1.0
  P  P7152  1  0.44747167  0.73960560  0.53145680  1.0
  P  P7153  1  0.44747167  0.88246274  0.53145680  1.0
  P  P7154  1  0.55858278  0.02531988  0.53145680  1.0
  P  P7155  1  0.55858278  0.16817702  0.53145680  1.0
  P  P7156  1  0.55858278  0.31103417  0.53145680  1.0
  P  P7157  1  0.55858278  0.45389131  0.53145680  1.0
  P  P7158  1  0.55858278  0.59674845  0.53145680  1.0
  P  P7159  1  0.55858278  0.73960560  0.53145680  1.0
  P  P7160  1  0.55858278  0.88246274  0.53145680  1.0
  P  P7161  1  0.66969389  0.02531988  0.53145680  1.0
  P  P7162  1  0.66969389  0.16817702  0.53145680  1.0
  P  P7163  1  0.66969389  0.31103417  0.53145680  1.0
  P  P7164  1  0.66969389  0.45389131  0.53145680  1.0
  P  P7165  1  0.66969389  0.59674845  0.53145680  1.0
  P  P7166  1  0.66969389  0.73960560  0.53145680  1.0
  P  P7167  1  0.66969389  0.88246274  0.53145680  1.0
  P  P7168  1  0.78080500  0.02531988  0.53145680  1.0
  P  P7169  1  0.78080500  0.16817702  0.53145680  1.0
  P  P7170  1  0.78080500  0.31103417  0.53145680  1.0
  P  P7171  1  0.78080500  0.45389131  0.53145680  1.0
  P  P7172  1  0.78080500  0.59674845  0.53145680  1.0
  P  P7173  1  0.78080500  0.73960560  0.53145680  1.0
  P  P7174  1  0.78080500  0.88246274  0.53145680  1.0
  P  P7175  1  0.89191612  0.02531988  0.53145680  1.0
  P  P7176  1  0.89191612  0.16817702  0.53145680  1.0
  P  P7177  1  0.89191612  0.31103417  0.53145680  1.0
  P  P7178  1  0.89191612  0.45389131  0.53145680  1.0
  P  P7179  1  0.89191612  0.59674845  0.53145680  1.0
  P  P7180  1  0.89191612  0.73960560  0.53145680  1.0
  P  P7181  1  0.89191612  0.88246274  0.53145680  1.0
  P  P7182  1  0.02419125  0.03892532  0.57907585  1.0
  P  P7183  1  0.02419125  0.18178247  0.57907585  1.0
  P  P7184  1  0.02419125  0.32463961  0.57907585  1.0
  P  P7185  1  0.02419125  0.46749675  0.57907585  1.0
  P  P7186  1  0.02419125  0.61035389  0.57907585  1.0
  P  P7187  1  0.02419125  0.75321104  0.57907585  1.0
  P  P7188  1  0.02419125  0.89606818  0.57907585  1.0
  P  P7189  1  0.13530236  0.03892532  0.57907585  1.0
  P  P7190  1  0.13530236  0.18178247  0.57907585  1.0
  P  P7191  1  0.13530236  0.32463961  0.57907585  1.0
  P  P7192  1  0.13530236  0.46749675  0.57907585  1.0
  P  P7193  1  0.13530236  0.61035389  0.57907585  1.0
  P  P7194  1  0.13530236  0.75321104  0.57907585  1.0
  P  P7195  1  0.13530236  0.89606818  0.57907585  1.0
  P  P7196  1  0.24641347  0.03892532  0.57907585  1.0
  P  P7197  1  0.24641347  0.18178247  0.57907585  1.0
  P  P7198  1  0.24641347  0.32463961  0.57907585  1.0
  P  P7199  1  0.24641347  0.46749675  0.57907585  1.0
  P  P7200  1  0.24641347  0.61035389  0.57907585  1.0
  P  P7201  1  0.24641347  0.75321104  0.57907585  1.0
  P  P7202  1  0.24641347  0.89606818  0.57907585  1.0
  P  P7203  1  0.35752458  0.03892532  0.57907585  1.0
  P  P7204  1  0.35752458  0.18178247  0.57907585  1.0
  P  P7205  1  0.35752458  0.32463961  0.57907585  1.0
  P  P7206  1  0.35752458  0.46749675  0.57907585  1.0
  P  P7207  1  0.35752458  0.61035389  0.57907585  1.0
  P  P7208  1  0.35752458  0.75321104  0.57907585  1.0
  P  P7209  1  0.35752458  0.89606818  0.57907585  1.0
  P  P7210  1  0.46863569  0.03892532  0.57907585  1.0
  P  P7211  1  0.46863569  0.18178247  0.57907585  1.0
  P  P7212  1  0.46863569  0.32463961  0.57907585  1.0
  P  P7213  1  0.46863569  0.46749675  0.57907585  1.0
  P  P7214  1  0.46863569  0.61035389  0.57907585  1.0
  P  P7215  1  0.46863569  0.75321104  0.57907585  1.0
  P  P7216  1  0.46863569  0.89606818  0.57907585  1.0
  P  P7217  1  0.57974680  0.03892532  0.57907585  1.0
  P  P7218  1  0.57974680  0.18178247  0.57907585  1.0
  P  P7219  1  0.57974680  0.32463961  0.57907585  1.0
  P  P7220  1  0.57974680  0.46749675  0.57907585  1.0
  P  P7221  1  0.57974680  0.61035389  0.57907585  1.0
  P  P7222  1  0.57974680  0.75321104  0.57907585  1.0
  P  P7223  1  0.57974680  0.89606818  0.57907585  1.0
  P  P7224  1  0.69085791  0.03892532  0.57907585  1.0
  P  P7225  1  0.69085791  0.18178247  0.57907585  1.0
  P  P7226  1  0.69085791  0.32463961  0.57907585  1.0
  P  P7227  1  0.69085791  0.46749675  0.57907585  1.0
  P  P7228  1  0.69085791  0.61035389  0.57907585  1.0
  P  P7229  1  0.69085791  0.75321104  0.57907585  1.0
  P  P7230  1  0.69085791  0.89606818  0.57907585  1.0
  P  P7231  1  0.80196903  0.03892532  0.57907585  1.0
  P  P7232  1  0.80196903  0.18178247  0.57907585  1.0
  P  P7233  1  0.80196903  0.32463961  0.57907585  1.0
  P  P7234  1  0.80196903  0.46749675  0.57907585  1.0
  P  P7235  1  0.80196903  0.61035389  0.57907585  1.0
  P  P7236  1  0.80196903  0.75321104  0.57907585  1.0
  P  P7237  1  0.80196903  0.89606818  0.57907585  1.0
  P  P7238  1  0.91308014  0.03892532  0.57907585  1.0
  P  P7239  1  0.91308014  0.18178247  0.57907585  1.0
  P  P7240  1  0.91308014  0.32463961  0.57907585  1.0
  P  P7241  1  0.91308014  0.46749675  0.57907585  1.0
  P  P7242  1  0.91308014  0.61035389  0.57907585  1.0
  P  P7243  1  0.91308014  0.75321104  0.57907585  1.0
  P  P7244  1  0.91308014  0.89606818  0.57907585  1.0
  P  P7245  1  0.04535527  0.05253077  0.62669489  1.0
  P  P7246  1  0.04535527  0.19538791  0.62669489  1.0
  P  P7247  1  0.04535527  0.33824505  0.62669489  1.0
  P  P7248  1  0.04535527  0.48110219  0.62669489  1.0
  P  P7249  1  0.04535527  0.62395934  0.62669489  1.0
  P  P7250  1  0.04535527  0.76681648  0.62669489  1.0
  P  P7251  1  0.04535527  0.90967362  0.62669489  1.0
  P  P7252  1  0.15646638  0.05253077  0.62669489  1.0
  P  P7253  1  0.15646638  0.19538791  0.62669489  1.0
  P  P7254  1  0.15646638  0.33824505  0.62669489  1.0
  P  P7255  1  0.15646638  0.48110219  0.62669489  1.0
  P  P7256  1  0.15646638  0.62395934  0.62669489  1.0
  P  P7257  1  0.15646638  0.76681648  0.62669489  1.0
  P  P7258  1  0.15646638  0.90967362  0.62669489  1.0
  P  P7259  1  0.26757749  0.05253077  0.62669489  1.0
  P  P7260  1  0.26757749  0.19538791  0.62669489  1.0
  P  P7261  1  0.26757749  0.33824505  0.62669489  1.0
  P  P7262  1  0.26757749  0.48110219  0.62669489  1.0
  P  P7263  1  0.26757749  0.62395934  0.62669489  1.0
  P  P7264  1  0.26757749  0.76681648  0.62669489  1.0
  P  P7265  1  0.26757749  0.90967362  0.62669489  1.0
  P  P7266  1  0.37868860  0.05253077  0.62669489  1.0
  P  P7267  1  0.37868860  0.19538791  0.62669489  1.0
  P  P7268  1  0.37868860  0.33824505  0.62669489  1.0
  P  P7269  1  0.37868860  0.48110219  0.62669489  1.0
  P  P7270  1  0.37868860  0.62395934  0.62669489  1.0
  P  P7271  1  0.37868860  0.76681648  0.62669489  1.0
  P  P7272  1  0.37868860  0.90967362  0.62669489  1.0
  P  P7273  1  0.48979971  0.05253077  0.62669489  1.0
  P  P7274  1  0.48979971  0.19538791  0.62669489  1.0
  P  P7275  1  0.48979971  0.33824505  0.62669489  1.0
  P  P7276  1  0.48979971  0.48110219  0.62669489  1.0
  P  P7277  1  0.48979971  0.62395934  0.62669489  1.0
  P  P7278  1  0.48979971  0.76681648  0.62669489  1.0
  P  P7279  1  0.48979971  0.90967362  0.62669489  1.0
  P  P7280  1  0.60091082  0.05253077  0.62669489  1.0
  P  P7281  1  0.60091082  0.19538791  0.62669489  1.0
  P  P7282  1  0.60091082  0.33824505  0.62669489  1.0
  P  P7283  1  0.60091082  0.48110219  0.62669489  1.0
  P  P7284  1  0.60091082  0.62395934  0.62669489  1.0
  P  P7285  1  0.60091082  0.76681648  0.62669489  1.0
  P  P7286  1  0.60091082  0.90967362  0.62669489  1.0
  P  P7287  1  0.71202194  0.05253077  0.62669489  1.0
  P  P7288  1  0.71202194  0.19538791  0.62669489  1.0
  P  P7289  1  0.71202194  0.33824505  0.62669489  1.0
  P  P7290  1  0.71202194  0.48110219  0.62669489  1.0
  P  P7291  1  0.71202194  0.62395934  0.62669489  1.0
  P  P7292  1  0.71202194  0.76681648  0.62669489  1.0
  P  P7293  1  0.71202194  0.90967362  0.62669489  1.0
  P  P7294  1  0.82313305  0.05253077  0.62669489  1.0
  P  P7295  1  0.82313305  0.19538791  0.62669489  1.0
  P  P7296  1  0.82313305  0.33824505  0.62669489  1.0
  P  P7297  1  0.82313305  0.48110219  0.62669489  1.0
  P  P7298  1  0.82313305  0.62395934  0.62669489  1.0
  P  P7299  1  0.82313305  0.76681648  0.62669489  1.0
  P  P7300  1  0.82313305  0.90967362  0.62669489  1.0
  P  P7301  1  0.93424416  0.05253077  0.62669489  1.0
  P  P7302  1  0.93424416  0.19538791  0.62669489  1.0
  P  P7303  1  0.93424416  0.33824505  0.62669489  1.0
  P  P7304  1  0.93424416  0.48110219  0.62669489  1.0
  P  P7305  1  0.93424416  0.62395934  0.62669489  1.0
  P  P7306  1  0.93424416  0.76681648  0.62669489  1.0
  P  P7307  1  0.93424416  0.90967362  0.62669489  1.0
  P  P7308  1  0.07212809  0.01453098  0.69503110  1.0
  P  P7309  1  0.07212809  0.15738813  0.69503110  1.0
  P  P7310  1  0.07212809  0.30024527  0.69503110  1.0
  P  P7311  1  0.07212809  0.44310241  0.69503110  1.0
  P  P7312  1  0.07212809  0.58595956  0.69503110  1.0
  P  P7313  1  0.07212809  0.72881670  0.69503110  1.0
  P  P7314  1  0.07212809  0.87167384  0.69503110  1.0
  P  P7315  1  0.18323920  0.01453098  0.69503110  1.0
  P  P7316  1  0.18323920  0.15738813  0.69503110  1.0
  P  P7317  1  0.18323920  0.30024527  0.69503110  1.0
  P  P7318  1  0.18323920  0.44310241  0.69503110  1.0
  P  P7319  1  0.18323920  0.58595956  0.69503110  1.0
  P  P7320  1  0.18323920  0.72881670  0.69503110  1.0
  P  P7321  1  0.18323920  0.87167384  0.69503110  1.0
  P  P7322  1  0.29435031  0.01453098  0.69503110  1.0
  P  P7323  1  0.29435031  0.15738813  0.69503110  1.0
  P  P7324  1  0.29435031  0.30024527  0.69503110  1.0
  P  P7325  1  0.29435031  0.44310241  0.69503110  1.0
  P  P7326  1  0.29435031  0.58595956  0.69503110  1.0
  P  P7327  1  0.29435031  0.72881670  0.69503110  1.0
  P  P7328  1  0.29435031  0.87167384  0.69503110  1.0
  P  P7329  1  0.40546142  0.01453098  0.69503110  1.0
  P  P7330  1  0.40546142  0.15738813  0.69503110  1.0
  P  P7331  1  0.40546142  0.30024527  0.69503110  1.0
  P  P7332  1  0.40546142  0.44310241  0.69503110  1.0
  P  P7333  1  0.40546142  0.58595956  0.69503110  1.0
  P  P7334  1  0.40546142  0.72881670  0.69503110  1.0
  P  P7335  1  0.40546142  0.87167384  0.69503110  1.0
  P  P7336  1  0.51657253  0.01453098  0.69503110  1.0
  P  P7337  1  0.51657253  0.15738813  0.69503110  1.0
  P  P7338  1  0.51657253  0.30024527  0.69503110  1.0
  P  P7339  1  0.51657253  0.44310241  0.69503110  1.0
  P  P7340  1  0.51657253  0.58595956  0.69503110  1.0
  P  P7341  1  0.51657253  0.72881670  0.69503110  1.0
  P  P7342  1  0.51657253  0.87167384  0.69503110  1.0
  P  P7343  1  0.62768364  0.01453098  0.69503110  1.0
  P  P7344  1  0.62768364  0.15738813  0.69503110  1.0
  P  P7345  1  0.62768364  0.30024527  0.69503110  1.0
  P  P7346  1  0.62768364  0.44310241  0.69503110  1.0
  P  P7347  1  0.62768364  0.58595956  0.69503110  1.0
  P  P7348  1  0.62768364  0.72881670  0.69503110  1.0
  P  P7349  1  0.62768364  0.87167384  0.69503110  1.0
  P  P7350  1  0.73879475  0.01453098  0.69503110  1.0
  P  P7351  1  0.73879475  0.15738813  0.69503110  1.0
  P  P7352  1  0.73879475  0.30024527  0.69503110  1.0
  P  P7353  1  0.73879475  0.44310241  0.69503110  1.0
  P  P7354  1  0.73879475  0.58595956  0.69503110  1.0
  P  P7355  1  0.73879475  0.72881670  0.69503110  1.0
  P  P7356  1  0.73879475  0.87167384  0.69503110  1.0
  P  P7357  1  0.84990587  0.01453098  0.69503110  1.0
  P  P7358  1  0.84990587  0.15738813  0.69503110  1.0
  P  P7359  1  0.84990587  0.30024527  0.69503110  1.0
  P  P7360  1  0.84990587  0.44310241  0.69503110  1.0
  P  P7361  1  0.84990587  0.58595956  0.69503110  1.0
  P  P7362  1  0.84990587  0.72881670  0.69503110  1.0
  P  P7363  1  0.84990587  0.87167384  0.69503110  1.0
  P  P7364  1  0.96101698  0.01453098  0.69503110  1.0
  P  P7365  1  0.96101698  0.15738813  0.69503110  1.0
  P  P7366  1  0.96101698  0.30024527  0.69503110  1.0
  P  P7367  1  0.96101698  0.44310241  0.69503110  1.0
  P  P7368  1  0.96101698  0.58595956  0.69503110  1.0
  P  P7369  1  0.96101698  0.72881670  0.69503110  1.0
  P  P7370  1  0.96101698  0.87167384  0.69503110  1.0
  P  P7371  1  0.09329211  0.02813643  0.74265015  1.0
  P  P7372  1  0.09329211  0.17099357  0.74265015  1.0
  P  P7373  1  0.09329211  0.31385071  0.74265015  1.0
  P  P7374  1  0.09329211  0.45670786  0.74265015  1.0
  P  P7375  1  0.09329211  0.59956500  0.74265015  1.0
  P  P7376  1  0.09329211  0.74242214  0.74265015  1.0
  P  P7377  1  0.09329211  0.88527928  0.74265015  1.0
  P  P7378  1  0.20440322  0.02813643  0.74265015  1.0
  P  P7379  1  0.20440322  0.17099357  0.74265015  1.0
  P  P7380  1  0.20440322  0.31385071  0.74265015  1.0
  P  P7381  1  0.20440322  0.45670786  0.74265015  1.0
  P  P7382  1  0.20440322  0.59956500  0.74265015  1.0
  P  P7383  1  0.20440322  0.74242214  0.74265015  1.0
  P  P7384  1  0.20440322  0.88527928  0.74265015  1.0
  P  P7385  1  0.31551433  0.02813643  0.74265015  1.0
  P  P7386  1  0.31551433  0.17099357  0.74265015  1.0
  P  P7387  1  0.31551433  0.31385071  0.74265015  1.0
  P  P7388  1  0.31551433  0.45670786  0.74265015  1.0
  P  P7389  1  0.31551433  0.59956500  0.74265015  1.0
  P  P7390  1  0.31551433  0.74242214  0.74265015  1.0
  P  P7391  1  0.31551433  0.88527928  0.74265015  1.0
  P  P7392  1  0.42662544  0.02813643  0.74265015  1.0
  P  P7393  1  0.42662544  0.17099357  0.74265015  1.0
  P  P7394  1  0.42662544  0.31385071  0.74265015  1.0
  P  P7395  1  0.42662544  0.45670786  0.74265015  1.0
  P  P7396  1  0.42662544  0.59956500  0.74265015  1.0
  P  P7397  1  0.42662544  0.74242214  0.74265015  1.0
  P  P7398  1  0.42662544  0.88527928  0.74265015  1.0
  P  P7399  1  0.53773655  0.02813643  0.74265015  1.0
  P  P7400  1  0.53773655  0.17099357  0.74265015  1.0
  P  P7401  1  0.53773655  0.31385071  0.74265015  1.0
  P  P7402  1  0.53773655  0.45670786  0.74265015  1.0
  P  P7403  1  0.53773655  0.59956500  0.74265015  1.0
  P  P7404  1  0.53773655  0.74242214  0.74265015  1.0
  P  P7405  1  0.53773655  0.88527928  0.74265015  1.0
  P  P7406  1  0.64884767  0.02813643  0.74265015  1.0
  P  P7407  1  0.64884767  0.17099357  0.74265015  1.0
  P  P7408  1  0.64884767  0.31385071  0.74265015  1.0
  P  P7409  1  0.64884767  0.45670786  0.74265015  1.0
  P  P7410  1  0.64884767  0.59956500  0.74265015  1.0
  P  P7411  1  0.64884767  0.74242214  0.74265015  1.0
  P  P7412  1  0.64884767  0.88527928  0.74265015  1.0
  P  P7413  1  0.75995878  0.02813643  0.74265015  1.0
  P  P7414  1  0.75995878  0.17099357  0.74265015  1.0
  P  P7415  1  0.75995878  0.31385071  0.74265015  1.0
  P  P7416  1  0.75995878  0.45670786  0.74265015  1.0
  P  P7417  1  0.75995878  0.59956500  0.74265015  1.0
  P  P7418  1  0.75995878  0.74242214  0.74265015  1.0
  P  P7419  1  0.75995878  0.88527928  0.74265015  1.0
  P  P7420  1  0.87106989  0.02813643  0.74265015  1.0
  P  P7421  1  0.87106989  0.17099357  0.74265015  1.0
  P  P7422  1  0.87106989  0.31385071  0.74265015  1.0
  P  P7423  1  0.87106989  0.45670786  0.74265015  1.0
  P  P7424  1  0.87106989  0.59956500  0.74265015  1.0
  P  P7425  1  0.87106989  0.74242214  0.74265015  1.0
  P  P7426  1  0.87106989  0.88527928  0.74265015  1.0
  P  P7427  1  0.98218100  0.02813643  0.74265015  1.0
  P  P7428  1  0.98218100  0.17099357  0.74265015  1.0
  P  P7429  1  0.98218100  0.31385071  0.74265015  1.0
  P  P7430  1  0.98218100  0.45670786  0.74265015  1.0
  P  P7431  1  0.98218100  0.59956500  0.74265015  1.0
  P  P7432  1  0.98218100  0.74242214  0.74265015  1.0
  P  P7433  1  0.98218100  0.88527928  0.74265015  1.0
  P  P7434  1  0.05096407  0.00092554  0.64741205  1.0
  P  P7435  1  0.05096407  0.14378269  0.64741205  1.0
  P  P7436  1  0.05096407  0.28663983  0.64741205  1.0
  P  P7437  1  0.05096407  0.42949697  0.64741205  1.0
  P  P7438  1  0.05096407  0.57235411  0.64741205  1.0
  P  P7439  1  0.05096407  0.71521126  0.64741205  1.0
  P  P7440  1  0.05096407  0.85806840  0.64741205  1.0
  P  P7441  1  0.16207518  0.00092554  0.64741205  1.0
  P  P7442  1  0.16207518  0.14378269  0.64741205  1.0
  P  P7443  1  0.16207518  0.28663983  0.64741205  1.0
  P  P7444  1  0.16207518  0.42949697  0.64741205  1.0
  P  P7445  1  0.16207518  0.57235411  0.64741205  1.0
  P  P7446  1  0.16207518  0.71521126  0.64741205  1.0
  P  P7447  1  0.16207518  0.85806840  0.64741205  1.0
  P  P7448  1  0.27318629  0.00092554  0.64741205  1.0
  P  P7449  1  0.27318629  0.14378269  0.64741205  1.0
  P  P7450  1  0.27318629  0.28663983  0.64741205  1.0
  P  P7451  1  0.27318629  0.42949697  0.64741205  1.0
  P  P7452  1  0.27318629  0.57235411  0.64741205  1.0
  P  P7453  1  0.27318629  0.71521126  0.64741205  1.0
  P  P7454  1  0.27318629  0.85806840  0.64741205  1.0
  P  P7455  1  0.38429740  0.00092554  0.64741205  1.0
  P  P7456  1  0.38429740  0.14378269  0.64741205  1.0
  P  P7457  1  0.38429740  0.28663983  0.64741205  1.0
  P  P7458  1  0.38429740  0.42949697  0.64741205  1.0
  P  P7459  1  0.38429740  0.57235411  0.64741205  1.0
  P  P7460  1  0.38429740  0.71521126  0.64741205  1.0
  P  P7461  1  0.38429740  0.85806840  0.64741205  1.0
  P  P7462  1  0.49540851  0.00092554  0.64741205  1.0
  P  P7463  1  0.49540851  0.14378269  0.64741205  1.0
  P  P7464  1  0.49540851  0.28663983  0.64741205  1.0
  P  P7465  1  0.49540851  0.42949697  0.64741205  1.0
  P  P7466  1  0.49540851  0.57235411  0.64741205  1.0
  P  P7467  1  0.49540851  0.71521126  0.64741205  1.0
  P  P7468  1  0.49540851  0.85806840  0.64741205  1.0
  P  P7469  1  0.60651962  0.00092554  0.64741205  1.0
  P  P7470  1  0.60651962  0.14378269  0.64741205  1.0
  P  P7471  1  0.60651962  0.28663983  0.64741205  1.0
  P  P7472  1  0.60651962  0.42949697  0.64741205  1.0
  P  P7473  1  0.60651962  0.57235411  0.64741205  1.0
  P  P7474  1  0.60651962  0.71521126  0.64741205  1.0
  P  P7475  1  0.60651962  0.85806840  0.64741205  1.0
  P  P7476  1  0.71763073  0.00092554  0.64741205  1.0
  P  P7477  1  0.71763073  0.14378269  0.64741205  1.0
  P  P7478  1  0.71763073  0.28663983  0.64741205  1.0
  P  P7479  1  0.71763073  0.42949697  0.64741205  1.0
  P  P7480  1  0.71763073  0.57235411  0.64741205  1.0
  P  P7481  1  0.71763073  0.71521126  0.64741205  1.0
  P  P7482  1  0.71763073  0.85806840  0.64741205  1.0
  P  P7483  1  0.82874184  0.00092554  0.64741205  1.0
  P  P7484  1  0.82874184  0.14378269  0.64741205  1.0
  P  P7485  1  0.82874184  0.28663983  0.64741205  1.0
  P  P7486  1  0.82874184  0.42949697  0.64741205  1.0
  P  P7487  1  0.82874184  0.57235411  0.64741205  1.0
  P  P7488  1  0.82874184  0.71521126  0.64741205  1.0
  P  P7489  1  0.82874184  0.85806840  0.64741205  1.0
  P  P7490  1  0.93985296  0.00092554  0.64741205  1.0
  P  P7491  1  0.93985296  0.14378269  0.64741205  1.0
  P  P7492  1  0.93985296  0.28663983  0.64741205  1.0
  P  P7493  1  0.93985296  0.42949697  0.64741205  1.0
  P  P7494  1  0.93985296  0.57235411  0.64741205  1.0
  P  P7495  1  0.93985296  0.71521126  0.64741205  1.0
  P  P7496  1  0.93985296  0.85806840  0.64741205  1.0
  P  P7497  1  0.05153389  0.11756827  0.69263688  1.0
  P  P7498  1  0.05153389  0.26042541  0.69263688  1.0
  P  P7499  1  0.05153389  0.40328255  0.69263688  1.0
  P  P7500  1  0.05153389  0.54613970  0.69263688  1.0
  P  P7501  1  0.05153389  0.68899684  0.69263688  1.0
  P  P7502  1  0.05153389  0.83185398  0.69263688  1.0
  P  P7503  1  0.05153389  0.97471113  0.69263688  1.0
  P  P7504  1  0.16264501  0.11756827  0.69263688  1.0
  P  P7505  1  0.16264501  0.26042541  0.69263688  1.0
  P  P7506  1  0.16264501  0.40328255  0.69263688  1.0
  P  P7507  1  0.16264501  0.54613970  0.69263688  1.0
  P  P7508  1  0.16264501  0.68899684  0.69263688  1.0
  P  P7509  1  0.16264501  0.83185398  0.69263688  1.0
  P  P7510  1  0.16264501  0.97471113  0.69263688  1.0
  P  P7511  1  0.27375612  0.11756827  0.69263688  1.0
  P  P7512  1  0.27375612  0.26042541  0.69263688  1.0
  P  P7513  1  0.27375612  0.40328255  0.69263688  1.0
  P  P7514  1  0.27375612  0.54613970  0.69263688  1.0
  P  P7515  1  0.27375612  0.68899684  0.69263688  1.0
  P  P7516  1  0.27375612  0.83185398  0.69263688  1.0
  P  P7517  1  0.27375612  0.97471113  0.69263688  1.0
  P  P7518  1  0.38486723  0.11756827  0.69263688  1.0
  P  P7519  1  0.38486723  0.26042541  0.69263688  1.0
  P  P7520  1  0.38486723  0.40328255  0.69263688  1.0
  P  P7521  1  0.38486723  0.54613970  0.69263688  1.0
  P  P7522  1  0.38486723  0.68899684  0.69263688  1.0
  P  P7523  1  0.38486723  0.83185398  0.69263688  1.0
  P  P7524  1  0.38486723  0.97471113  0.69263688  1.0
  P  P7525  1  0.49597834  0.11756827  0.69263688  1.0
  P  P7526  1  0.49597834  0.26042541  0.69263688  1.0
  P  P7527  1  0.49597834  0.40328255  0.69263688  1.0
  P  P7528  1  0.49597834  0.54613970  0.69263688  1.0
  P  P7529  1  0.49597834  0.68899684  0.69263688  1.0
  P  P7530  1  0.49597834  0.83185398  0.69263688  1.0
  P  P7531  1  0.49597834  0.97471113  0.69263688  1.0
  P  P7532  1  0.60708945  0.11756827  0.69263688  1.0
  P  P7533  1  0.60708945  0.26042541  0.69263688  1.0
  P  P7534  1  0.60708945  0.40328255  0.69263688  1.0
  P  P7535  1  0.60708945  0.54613970  0.69263688  1.0
  P  P7536  1  0.60708945  0.68899684  0.69263688  1.0
  P  P7537  1  0.60708945  0.83185398  0.69263688  1.0
  P  P7538  1  0.60708945  0.97471113  0.69263688  1.0
  P  P7539  1  0.71820056  0.11756827  0.69263688  1.0
  P  P7540  1  0.71820056  0.26042541  0.69263688  1.0
  P  P7541  1  0.71820056  0.40328255  0.69263688  1.0
  P  P7542  1  0.71820056  0.54613970  0.69263688  1.0
  P  P7543  1  0.71820056  0.68899684  0.69263688  1.0
  P  P7544  1  0.71820056  0.83185398  0.69263688  1.0
  P  P7545  1  0.71820056  0.97471113  0.69263688  1.0
  P  P7546  1  0.82931167  0.11756827  0.69263688  1.0
  P  P7547  1  0.82931167  0.26042541  0.69263688  1.0
  P  P7548  1  0.82931167  0.40328255  0.69263688  1.0
  P  P7549  1  0.82931167  0.54613970  0.69263688  1.0
  P  P7550  1  0.82931167  0.68899684  0.69263688  1.0
  P  P7551  1  0.82931167  0.83185398  0.69263688  1.0
  P  P7552  1  0.82931167  0.97471113  0.69263688  1.0
  P  P7553  1  0.94042278  0.11756827  0.69263688  1.0
  P  P7554  1  0.94042278  0.26042541  0.69263688  1.0
  P  P7555  1  0.94042278  0.40328255  0.69263688  1.0
  P  P7556  1  0.94042278  0.54613970  0.69263688  1.0
  P  P7557  1  0.94042278  0.68899684  0.69263688  1.0
  P  P7558  1  0.94042278  0.83185398  0.69263688  1.0
  P  P7559  1  0.94042278  0.97471113  0.69263688  1.0
  P  P7560  1  0.07269792  0.13117371  0.74025593  1.0
  P  P7561  1  0.07269792  0.27403085  0.74025593  1.0
  P  P7562  1  0.07269792  0.41688800  0.74025593  1.0
  P  P7563  1  0.07269792  0.55974514  0.74025593  1.0
  P  P7564  1  0.07269792  0.70260228  0.74025593  1.0
  P  P7565  1  0.07269792  0.84545942  0.74025593  1.0
  P  P7566  1  0.07269792  0.98831657  0.74025593  1.0
  P  P7567  1  0.18380903  0.13117371  0.74025593  1.0
  P  P7568  1  0.18380903  0.27403085  0.74025593  1.0
  P  P7569  1  0.18380903  0.41688800  0.74025593  1.0
  P  P7570  1  0.18380903  0.55974514  0.74025593  1.0
  P  P7571  1  0.18380903  0.70260228  0.74025593  1.0
  P  P7572  1  0.18380903  0.84545942  0.74025593  1.0
  P  P7573  1  0.18380903  0.98831657  0.74025593  1.0
  P  P7574  1  0.29492014  0.13117371  0.74025593  1.0
  P  P7575  1  0.29492014  0.27403085  0.74025593  1.0
  P  P7576  1  0.29492014  0.41688800  0.74025593  1.0
  P  P7577  1  0.29492014  0.55974514  0.74025593  1.0
  P  P7578  1  0.29492014  0.70260228  0.74025593  1.0
  P  P7579  1  0.29492014  0.84545942  0.74025593  1.0
  P  P7580  1  0.29492014  0.98831657  0.74025593  1.0
  P  P7581  1  0.40603125  0.13117371  0.74025593  1.0
  P  P7582  1  0.40603125  0.27403085  0.74025593  1.0
  P  P7583  1  0.40603125  0.41688800  0.74025593  1.0
  P  P7584  1  0.40603125  0.55974514  0.74025593  1.0
  P  P7585  1  0.40603125  0.70260228  0.74025593  1.0
  P  P7586  1  0.40603125  0.84545942  0.74025593  1.0
  P  P7587  1  0.40603125  0.98831657  0.74025593  1.0
  P  P7588  1  0.51714236  0.13117371  0.74025593  1.0
  P  P7589  1  0.51714236  0.27403085  0.74025593  1.0
  P  P7590  1  0.51714236  0.41688800  0.74025593  1.0
  P  P7591  1  0.51714236  0.55974514  0.74025593  1.0
  P  P7592  1  0.51714236  0.70260228  0.74025593  1.0
  P  P7593  1  0.51714236  0.84545942  0.74025593  1.0
  P  P7594  1  0.51714236  0.98831657  0.74025593  1.0
  P  P7595  1  0.62825347  0.13117371  0.74025593  1.0
  P  P7596  1  0.62825347  0.27403085  0.74025593  1.0
  P  P7597  1  0.62825347  0.41688800  0.74025593  1.0
  P  P7598  1  0.62825347  0.55974514  0.74025593  1.0
  P  P7599  1  0.62825347  0.70260228  0.74025593  1.0
  P  P7600  1  0.62825347  0.84545942  0.74025593  1.0
  P  P7601  1  0.62825347  0.98831657  0.74025593  1.0
  P  P7602  1  0.73936458  0.13117371  0.74025593  1.0
  P  P7603  1  0.73936458  0.27403085  0.74025593  1.0
  P  P7604  1  0.73936458  0.41688800  0.74025593  1.0
  P  P7605  1  0.73936458  0.55974514  0.74025593  1.0
  P  P7606  1  0.73936458  0.70260228  0.74025593  1.0
  P  P7607  1  0.73936458  0.84545942  0.74025593  1.0
  P  P7608  1  0.73936458  0.98831657  0.74025593  1.0
  P  P7609  1  0.85047569  0.13117371  0.74025593  1.0
  P  P7610  1  0.85047569  0.27403085  0.74025593  1.0
  P  P7611  1  0.85047569  0.41688800  0.74025593  1.0
  P  P7612  1  0.85047569  0.55974514  0.74025593  1.0
  P  P7613  1  0.85047569  0.70260228  0.74025593  1.0
  P  P7614  1  0.85047569  0.84545942  0.74025593  1.0
  P  P7615  1  0.85047569  0.98831657  0.74025593  1.0
  P  P7616  1  0.96158680  0.13117371  0.74025593  1.0
  P  P7617  1  0.96158680  0.27403085  0.74025593  1.0
  P  P7618  1  0.96158680  0.41688800  0.74025593  1.0
  P  P7619  1  0.96158680  0.55974514  0.74025593  1.0
  P  P7620  1  0.96158680  0.70260228  0.74025593  1.0
  P  P7621  1  0.96158680  0.84545942  0.74025593  1.0
  P  P7622  1  0.96158680  0.98831657  0.74025593  1.0
  P  P7623  1  0.03036987  0.10396283  0.64501784  1.0
  P  P7624  1  0.03036987  0.24681997  0.64501784  1.0
  P  P7625  1  0.03036987  0.38967711  0.64501784  1.0
  P  P7626  1  0.03036987  0.53253425  0.64501784  1.0
  P  P7627  1  0.03036987  0.67539140  0.64501784  1.0
  P  P7628  1  0.03036987  0.81824854  0.64501784  1.0
  P  P7629  1  0.03036987  0.96110568  0.64501784  1.0
  P  P7630  1  0.14148098  0.10396283  0.64501784  1.0
  P  P7631  1  0.14148098  0.24681997  0.64501784  1.0
  P  P7632  1  0.14148098  0.38967711  0.64501784  1.0
  P  P7633  1  0.14148098  0.53253425  0.64501784  1.0
  P  P7634  1  0.14148098  0.67539140  0.64501784  1.0
  P  P7635  1  0.14148098  0.81824854  0.64501784  1.0
  P  P7636  1  0.14148098  0.96110568  0.64501784  1.0
  P  P7637  1  0.25259210  0.10396283  0.64501784  1.0
  P  P7638  1  0.25259210  0.24681997  0.64501784  1.0
  P  P7639  1  0.25259210  0.38967711  0.64501784  1.0
  P  P7640  1  0.25259210  0.53253425  0.64501784  1.0
  P  P7641  1  0.25259210  0.67539140  0.64501784  1.0
  P  P7642  1  0.25259210  0.81824854  0.64501784  1.0
  P  P7643  1  0.25259210  0.96110568  0.64501784  1.0
  P  P7644  1  0.36370321  0.10396283  0.64501784  1.0
  P  P7645  1  0.36370321  0.24681997  0.64501784  1.0
  P  P7646  1  0.36370321  0.38967711  0.64501784  1.0
  P  P7647  1  0.36370321  0.53253425  0.64501784  1.0
  P  P7648  1  0.36370321  0.67539140  0.64501784  1.0
  P  P7649  1  0.36370321  0.81824854  0.64501784  1.0
  P  P7650  1  0.36370321  0.96110568  0.64501784  1.0
  P  P7651  1  0.47481432  0.10396283  0.64501784  1.0
  P  P7652  1  0.47481432  0.24681997  0.64501784  1.0
  P  P7653  1  0.47481432  0.38967711  0.64501784  1.0
  P  P7654  1  0.47481432  0.53253425  0.64501784  1.0
  P  P7655  1  0.47481432  0.67539140  0.64501784  1.0
  P  P7656  1  0.47481432  0.81824854  0.64501784  1.0
  P  P7657  1  0.47481432  0.96110568  0.64501784  1.0
  P  P7658  1  0.58592543  0.10396283  0.64501784  1.0
  P  P7659  1  0.58592543  0.24681997  0.64501784  1.0
  P  P7660  1  0.58592543  0.38967711  0.64501784  1.0
  P  P7661  1  0.58592543  0.53253425  0.64501784  1.0
  P  P7662  1  0.58592543  0.67539140  0.64501784  1.0
  P  P7663  1  0.58592543  0.81824854  0.64501784  1.0
  P  P7664  1  0.58592543  0.96110568  0.64501784  1.0
  P  P7665  1  0.69703654  0.10396283  0.64501784  1.0
  P  P7666  1  0.69703654  0.24681997  0.64501784  1.0
  P  P7667  1  0.69703654  0.38967711  0.64501784  1.0
  P  P7668  1  0.69703654  0.53253425  0.64501784  1.0
  P  P7669  1  0.69703654  0.67539140  0.64501784  1.0
  P  P7670  1  0.69703654  0.81824854  0.64501784  1.0
  P  P7671  1  0.69703654  0.96110568  0.64501784  1.0
  P  P7672  1  0.80814765  0.10396283  0.64501784  1.0
  P  P7673  1  0.80814765  0.24681997  0.64501784  1.0
  P  P7674  1  0.80814765  0.38967711  0.64501784  1.0
  P  P7675  1  0.80814765  0.53253425  0.64501784  1.0
  P  P7676  1  0.80814765  0.67539140  0.64501784  1.0
  P  P7677  1  0.80814765  0.81824854  0.64501784  1.0
  P  P7678  1  0.80814765  0.96110568  0.64501784  1.0
  P  P7679  1  0.91925876  0.10396283  0.64501784  1.0
  P  P7680  1  0.91925876  0.24681997  0.64501784  1.0
  P  P7681  1  0.91925876  0.38967711  0.64501784  1.0
  P  P7682  1  0.91925876  0.53253425  0.64501784  1.0
  P  P7683  1  0.91925876  0.67539140  0.64501784  1.0
  P  P7684  1  0.91925876  0.81824854  0.64501784  1.0
  P  P7685  1  0.91925876  0.96110568  0.64501784  1.0
  P  P7686  1  0.02237043  0.05055098  0.70807636  1.0
  P  P7687  1  0.02237043  0.19340812  0.70807636  1.0
  P  P7688  1  0.02237043  0.33626526  0.70807636  1.0
  P  P7689  1  0.02237043  0.47912241  0.70807636  1.0
  P  P7690  1  0.02237043  0.62197955  0.70807636  1.0
  P  P7691  1  0.02237043  0.76483669  0.70807636  1.0
  P  P7692  1  0.02237043  0.90769383  0.70807636  1.0
  P  P7693  1  0.13348154  0.05055098  0.70807636  1.0
  P  P7694  1  0.13348154  0.19340812  0.70807636  1.0
  P  P7695  1  0.13348154  0.33626526  0.70807636  1.0
  P  P7696  1  0.13348154  0.47912241  0.70807636  1.0
  P  P7697  1  0.13348154  0.62197955  0.70807636  1.0
  P  P7698  1  0.13348154  0.76483669  0.70807636  1.0
  P  P7699  1  0.13348154  0.90769383  0.70807636  1.0
  P  P7700  1  0.24459265  0.05055098  0.70807636  1.0
  P  P7701  1  0.24459265  0.19340812  0.70807636  1.0
  P  P7702  1  0.24459265  0.33626526  0.70807636  1.0
  P  P7703  1  0.24459265  0.47912241  0.70807636  1.0
  P  P7704  1  0.24459265  0.62197955  0.70807636  1.0
  P  P7705  1  0.24459265  0.76483669  0.70807636  1.0
  P  P7706  1  0.24459265  0.90769383  0.70807636  1.0
  P  P7707  1  0.35570376  0.05055098  0.70807636  1.0
  P  P7708  1  0.35570376  0.19340812  0.70807636  1.0
  P  P7709  1  0.35570376  0.33626526  0.70807636  1.0
  P  P7710  1  0.35570376  0.47912241  0.70807636  1.0
  P  P7711  1  0.35570376  0.62197955  0.70807636  1.0
  P  P7712  1  0.35570376  0.76483669  0.70807636  1.0
  P  P7713  1  0.35570376  0.90769383  0.70807636  1.0
  P  P7714  1  0.46681487  0.05055098  0.70807636  1.0
  P  P7715  1  0.46681487  0.19340812  0.70807636  1.0
  P  P7716  1  0.46681487  0.33626526  0.70807636  1.0
  P  P7717  1  0.46681487  0.47912241  0.70807636  1.0
  P  P7718  1  0.46681487  0.62197955  0.70807636  1.0
  P  P7719  1  0.46681487  0.76483669  0.70807636  1.0
  P  P7720  1  0.46681487  0.90769383  0.70807636  1.0
  P  P7721  1  0.57792598  0.05055098  0.70807636  1.0
  P  P7722  1  0.57792598  0.19340812  0.70807636  1.0
  P  P7723  1  0.57792598  0.33626526  0.70807636  1.0
  P  P7724  1  0.57792598  0.47912241  0.70807636  1.0
  P  P7725  1  0.57792598  0.62197955  0.70807636  1.0
  P  P7726  1  0.57792598  0.76483669  0.70807636  1.0
  P  P7727  1  0.57792598  0.90769383  0.70807636  1.0
  P  P7728  1  0.68903710  0.05055098  0.70807636  1.0
  P  P7729  1  0.68903710  0.19340812  0.70807636  1.0
  P  P7730  1  0.68903710  0.33626526  0.70807636  1.0
  P  P7731  1  0.68903710  0.47912241  0.70807636  1.0
  P  P7732  1  0.68903710  0.62197955  0.70807636  1.0
  P  P7733  1  0.68903710  0.76483669  0.70807636  1.0
  P  P7734  1  0.68903710  0.90769383  0.70807636  1.0
  P  P7735  1  0.80014821  0.05055098  0.70807636  1.0
  P  P7736  1  0.80014821  0.19340812  0.70807636  1.0
  P  P7737  1  0.80014821  0.33626526  0.70807636  1.0
  P  P7738  1  0.80014821  0.47912241  0.70807636  1.0
  P  P7739  1  0.80014821  0.62197955  0.70807636  1.0
  P  P7740  1  0.80014821  0.76483669  0.70807636  1.0
  P  P7741  1  0.80014821  0.90769383  0.70807636  1.0
  P  P7742  1  0.91125932  0.05055098  0.70807636  1.0
  P  P7743  1  0.91125932  0.19340812  0.70807636  1.0
  P  P7744  1  0.91125932  0.33626526  0.70807636  1.0
  P  P7745  1  0.91125932  0.47912241  0.70807636  1.0
  P  P7746  1  0.91125932  0.62197955  0.70807636  1.0
  P  P7747  1  0.91125932  0.76483669  0.70807636  1.0
  P  P7748  1  0.91125932  0.90769383  0.70807636  1.0
  P  P7749  1  0.00120641  0.03694554  0.66045732  1.0
  P  P7750  1  0.00120641  0.17980268  0.66045732  1.0
  P  P7751  1  0.00120641  0.32265982  0.66045732  1.0
  P  P7752  1  0.00120641  0.46551696  0.66045732  1.0
  P  P7753  1  0.00120641  0.60837411  0.66045732  1.0
  P  P7754  1  0.00120641  0.75123125  0.66045732  1.0
  P  P7755  1  0.00120641  0.89408839  0.66045732  1.0
  P  P7756  1  0.11231752  0.03694554  0.66045732  1.0
  P  P7757  1  0.11231752  0.17980268  0.66045732  1.0
  P  P7758  1  0.11231752  0.32265982  0.66045732  1.0
  P  P7759  1  0.11231752  0.46551696  0.66045732  1.0
  P  P7760  1  0.11231752  0.60837411  0.66045732  1.0
  P  P7761  1  0.11231752  0.75123125  0.66045732  1.0
  P  P7762  1  0.11231752  0.89408839  0.66045732  1.0
  P  P7763  1  0.22342863  0.03694554  0.66045732  1.0
  P  P7764  1  0.22342863  0.17980268  0.66045732  1.0
  P  P7765  1  0.22342863  0.32265982  0.66045732  1.0
  P  P7766  1  0.22342863  0.46551696  0.66045732  1.0
  P  P7767  1  0.22342863  0.60837411  0.66045732  1.0
  P  P7768  1  0.22342863  0.75123125  0.66045732  1.0
  P  P7769  1  0.22342863  0.89408839  0.66045732  1.0
  P  P7770  1  0.33453974  0.03694554  0.66045732  1.0
  P  P7771  1  0.33453974  0.17980268  0.66045732  1.0
  P  P7772  1  0.33453974  0.32265982  0.66045732  1.0
  P  P7773  1  0.33453974  0.46551696  0.66045732  1.0
  P  P7774  1  0.33453974  0.60837411  0.66045732  1.0
  P  P7775  1  0.33453974  0.75123125  0.66045732  1.0
  P  P7776  1  0.33453974  0.89408839  0.66045732  1.0
  P  P7777  1  0.44565085  0.03694554  0.66045732  1.0
  P  P7778  1  0.44565085  0.17980268  0.66045732  1.0
  P  P7779  1  0.44565085  0.32265982  0.66045732  1.0
  P  P7780  1  0.44565085  0.46551696  0.66045732  1.0
  P  P7781  1  0.44565085  0.60837411  0.66045732  1.0
  P  P7782  1  0.44565085  0.75123125  0.66045732  1.0
  P  P7783  1  0.44565085  0.89408839  0.66045732  1.0
  P  P7784  1  0.55676196  0.03694554  0.66045732  1.0
  P  P7785  1  0.55676196  0.17980268  0.66045732  1.0
  P  P7786  1  0.55676196  0.32265982  0.66045732  1.0
  P  P7787  1  0.55676196  0.46551696  0.66045732  1.0
  P  P7788  1  0.55676196  0.60837411  0.66045732  1.0
  P  P7789  1  0.55676196  0.75123125  0.66045732  1.0
  P  P7790  1  0.55676196  0.89408839  0.66045732  1.0
  P  P7791  1  0.66787307  0.03694554  0.66045732  1.0
  P  P7792  1  0.66787307  0.17980268  0.66045732  1.0
  P  P7793  1  0.66787307  0.32265982  0.66045732  1.0
  P  P7794  1  0.66787307  0.46551696  0.66045732  1.0
  P  P7795  1  0.66787307  0.60837411  0.66045732  1.0
  P  P7796  1  0.66787307  0.75123125  0.66045732  1.0
  P  P7797  1  0.66787307  0.89408839  0.66045732  1.0
  P  P7798  1  0.77898419  0.03694554  0.66045732  1.0
  P  P7799  1  0.77898419  0.17980268  0.66045732  1.0
  P  P7800  1  0.77898419  0.32265982  0.66045732  1.0
  P  P7801  1  0.77898419  0.46551696  0.66045732  1.0
  P  P7802  1  0.77898419  0.60837411  0.66045732  1.0
  P  P7803  1  0.77898419  0.75123125  0.66045732  1.0
  P  P7804  1  0.77898419  0.89408839  0.66045732  1.0
  P  P7805  1  0.89009530  0.03694554  0.66045732  1.0
  P  P7806  1  0.89009530  0.17980268  0.66045732  1.0
  P  P7807  1  0.89009530  0.32265982  0.66045732  1.0
  P  P7808  1  0.89009530  0.46551696  0.66045732  1.0
  P  P7809  1  0.89009530  0.60837411  0.66045732  1.0
  P  P7810  1  0.89009530  0.75123125  0.66045732  1.0
  P  P7811  1  0.89009530  0.89408839  0.66045732  1.0
  P  P7812  1  0.10129155  0.08154828  0.67959162  1.0
  P  P7813  1  0.10129155  0.22440542  0.67959162  1.0
  P  P7814  1  0.10129155  0.36726256  0.67959162  1.0
  P  P7815  1  0.10129155  0.51011970  0.67959162  1.0
  P  P7816  1  0.10129155  0.65297685  0.67959162  1.0
  P  P7817  1  0.10129155  0.79583399  0.67959162  1.0
  P  P7818  1  0.10129155  0.93869113  0.67959162  1.0
  P  P7819  1  0.21240267  0.08154828  0.67959162  1.0
  P  P7820  1  0.21240267  0.22440542  0.67959162  1.0
  P  P7821  1  0.21240267  0.36726256  0.67959162  1.0
  P  P7822  1  0.21240267  0.51011970  0.67959162  1.0
  P  P7823  1  0.21240267  0.65297685  0.67959162  1.0
  P  P7824  1  0.21240267  0.79583399  0.67959162  1.0
  P  P7825  1  0.21240267  0.93869113  0.67959162  1.0
  P  P7826  1  0.32351378  0.08154828  0.67959162  1.0
  P  P7827  1  0.32351378  0.22440542  0.67959162  1.0
  P  P7828  1  0.32351378  0.36726256  0.67959162  1.0
  P  P7829  1  0.32351378  0.51011970  0.67959162  1.0
  P  P7830  1  0.32351378  0.65297685  0.67959162  1.0
  P  P7831  1  0.32351378  0.79583399  0.67959162  1.0
  P  P7832  1  0.32351378  0.93869113  0.67959162  1.0
  P  P7833  1  0.43462489  0.08154828  0.67959162  1.0
  P  P7834  1  0.43462489  0.22440542  0.67959162  1.0
  P  P7835  1  0.43462489  0.36726256  0.67959162  1.0
  P  P7836  1  0.43462489  0.51011970  0.67959162  1.0
  P  P7837  1  0.43462489  0.65297685  0.67959162  1.0
  P  P7838  1  0.43462489  0.79583399  0.67959162  1.0
  P  P7839  1  0.43462489  0.93869113  0.67959162  1.0
  P  P7840  1  0.54573600  0.08154828  0.67959162  1.0
  P  P7841  1  0.54573600  0.22440542  0.67959162  1.0
  P  P7842  1  0.54573600  0.36726256  0.67959162  1.0
  P  P7843  1  0.54573600  0.51011970  0.67959162  1.0
  P  P7844  1  0.54573600  0.65297685  0.67959162  1.0
  P  P7845  1  0.54573600  0.79583399  0.67959162  1.0
  P  P7846  1  0.54573600  0.93869113  0.67959162  1.0
  P  P7847  1  0.65684711  0.08154828  0.67959162  1.0
  P  P7848  1  0.65684711  0.22440542  0.67959162  1.0
  P  P7849  1  0.65684711  0.36726256  0.67959162  1.0
  P  P7850  1  0.65684711  0.51011970  0.67959162  1.0
  P  P7851  1  0.65684711  0.65297685  0.67959162  1.0
  P  P7852  1  0.65684711  0.79583399  0.67959162  1.0
  P  P7853  1  0.65684711  0.93869113  0.67959162  1.0
  P  P7854  1  0.76795822  0.08154828  0.67959162  1.0
  P  P7855  1  0.76795822  0.22440542  0.67959162  1.0
  P  P7856  1  0.76795822  0.36726256  0.67959162  1.0
  P  P7857  1  0.76795822  0.51011970  0.67959162  1.0
  P  P7858  1  0.76795822  0.65297685  0.67959162  1.0
  P  P7859  1  0.76795822  0.79583399  0.67959162  1.0
  P  P7860  1  0.76795822  0.93869113  0.67959162  1.0
  P  P7861  1  0.87906933  0.08154828  0.67959162  1.0
  P  P7862  1  0.87906933  0.22440542  0.67959162  1.0
  P  P7863  1  0.87906933  0.36726256  0.67959162  1.0
  P  P7864  1  0.87906933  0.51011970  0.67959162  1.0
  P  P7865  1  0.87906933  0.65297685  0.67959162  1.0
  P  P7866  1  0.87906933  0.79583399  0.67959162  1.0
  P  P7867  1  0.87906933  0.93869113  0.67959162  1.0
  P  P7868  1  0.99018044  0.08154828  0.67959162  1.0
  P  P7869  1  0.99018044  0.22440542  0.67959162  1.0
  P  P7870  1  0.99018044  0.36726256  0.67959162  1.0
  P  P7871  1  0.99018044  0.51011970  0.67959162  1.0
  P  P7872  1  0.99018044  0.65297685  0.67959162  1.0
  P  P7873  1  0.99018044  0.79583399  0.67959162  1.0
  P  P7874  1  0.99018044  0.93869113  0.67959162  1.0
  P  P7875  1  0.01134446  0.09515372  0.72721066  1.0
  P  P7876  1  0.01134446  0.23801086  0.72721066  1.0
  P  P7877  1  0.01134446  0.38086800  0.72721066  1.0
  P  P7878  1  0.01134446  0.52372515  0.72721066  1.0
  P  P7879  1  0.01134446  0.66658229  0.72721066  1.0
  P  P7880  1  0.01134446  0.80943943  0.72721066  1.0
  P  P7881  1  0.01134446  0.95229657  0.72721066  1.0
  P  P7882  1  0.12245558  0.09515372  0.72721066  1.0
  P  P7883  1  0.12245558  0.23801086  0.72721066  1.0
  P  P7884  1  0.12245558  0.38086800  0.72721066  1.0
  P  P7885  1  0.12245558  0.52372515  0.72721066  1.0
  P  P7886  1  0.12245558  0.66658229  0.72721066  1.0
  P  P7887  1  0.12245558  0.80943943  0.72721066  1.0
  P  P7888  1  0.12245558  0.95229657  0.72721066  1.0
  P  P7889  1  0.23356669  0.09515372  0.72721066  1.0
  P  P7890  1  0.23356669  0.23801086  0.72721066  1.0
  P  P7891  1  0.23356669  0.38086800  0.72721066  1.0
  P  P7892  1  0.23356669  0.52372515  0.72721066  1.0
  P  P7893  1  0.23356669  0.66658229  0.72721066  1.0
  P  P7894  1  0.23356669  0.80943943  0.72721066  1.0
  P  P7895  1  0.23356669  0.95229657  0.72721066  1.0
  P  P7896  1  0.34467780  0.09515372  0.72721066  1.0
  P  P7897  1  0.34467780  0.23801086  0.72721066  1.0
  P  P7898  1  0.34467780  0.38086800  0.72721066  1.0
  P  P7899  1  0.34467780  0.52372515  0.72721066  1.0
  P  P7900  1  0.34467780  0.66658229  0.72721066  1.0
  P  P7901  1  0.34467780  0.80943943  0.72721066  1.0
  P  P7902  1  0.34467780  0.95229657  0.72721066  1.0
  P  P7903  1  0.45578891  0.09515372  0.72721066  1.0
  P  P7904  1  0.45578891  0.23801086  0.72721066  1.0
  P  P7905  1  0.45578891  0.38086800  0.72721066  1.0
  P  P7906  1  0.45578891  0.52372515  0.72721066  1.0
  P  P7907  1  0.45578891  0.66658229  0.72721066  1.0
  P  P7908  1  0.45578891  0.80943943  0.72721066  1.0
  P  P7909  1  0.45578891  0.95229657  0.72721066  1.0
  P  P7910  1  0.56690002  0.09515372  0.72721066  1.0
  P  P7911  1  0.56690002  0.23801086  0.72721066  1.0
  P  P7912  1  0.56690002  0.38086800  0.72721066  1.0
  P  P7913  1  0.56690002  0.52372515  0.72721066  1.0
  P  P7914  1  0.56690002  0.66658229  0.72721066  1.0
  P  P7915  1  0.56690002  0.80943943  0.72721066  1.0
  P  P7916  1  0.56690002  0.95229657  0.72721066  1.0
  P  P7917  1  0.67801113  0.09515372  0.72721066  1.0
  P  P7918  1  0.67801113  0.23801086  0.72721066  1.0
  P  P7919  1  0.67801113  0.38086800  0.72721066  1.0
  P  P7920  1  0.67801113  0.52372515  0.72721066  1.0
  P  P7921  1  0.67801113  0.66658229  0.72721066  1.0
  P  P7922  1  0.67801113  0.80943943  0.72721066  1.0
  P  P7923  1  0.67801113  0.95229657  0.72721066  1.0
  P  P7924  1  0.78912224  0.09515372  0.72721066  1.0
  P  P7925  1  0.78912224  0.23801086  0.72721066  1.0
  P  P7926  1  0.78912224  0.38086800  0.72721066  1.0
  P  P7927  1  0.78912224  0.52372515  0.72721066  1.0
  P  P7928  1  0.78912224  0.66658229  0.72721066  1.0
  P  P7929  1  0.78912224  0.80943943  0.72721066  1.0
  P  P7930  1  0.78912224  0.95229657  0.72721066  1.0
  P  P7931  1  0.90023335  0.09515372  0.72721066  1.0
  P  P7932  1  0.90023335  0.23801086  0.72721066  1.0
  P  P7933  1  0.90023335  0.38086800  0.72721066  1.0
  P  P7934  1  0.90023335  0.52372515  0.72721066  1.0
  P  P7935  1  0.90023335  0.66658229  0.72721066  1.0
  P  P7936  1  0.90023335  0.80943943  0.72721066  1.0
  P  P7937  1  0.90023335  0.95229657  0.72721066  1.0
  P  P7938  1  0.11102010  0.00478314  0.70957822  1.0
  P  P7939  1  0.11102010  0.14764029  0.70957822  1.0
  P  P7940  1  0.11102010  0.29049743  0.70957822  1.0
  P  P7941  1  0.11102010  0.43335457  0.70957822  1.0
  P  P7942  1  0.11102010  0.57621171  0.70957822  1.0
  P  P7943  1  0.11102010  0.71906886  0.70957822  1.0
  P  P7944  1  0.11102010  0.86192600  0.70957822  1.0
  P  P7945  1  0.22213121  0.00478314  0.70957822  1.0
  P  P7946  1  0.22213121  0.14764029  0.70957822  1.0
  P  P7947  1  0.22213121  0.29049743  0.70957822  1.0
  P  P7948  1  0.22213121  0.43335457  0.70957822  1.0
  P  P7949  1  0.22213121  0.57621171  0.70957822  1.0
  P  P7950  1  0.22213121  0.71906886  0.70957822  1.0
  P  P7951  1  0.22213121  0.86192600  0.70957822  1.0
  P  P7952  1  0.33324233  0.00478314  0.70957822  1.0
  P  P7953  1  0.33324233  0.14764029  0.70957822  1.0
  P  P7954  1  0.33324233  0.29049743  0.70957822  1.0
  P  P7955  1  0.33324233  0.43335457  0.70957822  1.0
  P  P7956  1  0.33324233  0.57621171  0.70957822  1.0
  P  P7957  1  0.33324233  0.71906886  0.70957822  1.0
  P  P7958  1  0.33324233  0.86192600  0.70957822  1.0
  P  P7959  1  0.44435344  0.00478314  0.70957822  1.0
  P  P7960  1  0.44435344  0.14764029  0.70957822  1.0
  P  P7961  1  0.44435344  0.29049743  0.70957822  1.0
  P  P7962  1  0.44435344  0.43335457  0.70957822  1.0
  P  P7963  1  0.44435344  0.57621171  0.70957822  1.0
  P  P7964  1  0.44435344  0.71906886  0.70957822  1.0
  P  P7965  1  0.44435344  0.86192600  0.70957822  1.0
  P  P7966  1  0.55546455  0.00478314  0.70957822  1.0
  P  P7967  1  0.55546455  0.14764029  0.70957822  1.0
  P  P7968  1  0.55546455  0.29049743  0.70957822  1.0
  P  P7969  1  0.55546455  0.43335457  0.70957822  1.0
  P  P7970  1  0.55546455  0.57621171  0.70957822  1.0
  P  P7971  1  0.55546455  0.71906886  0.70957822  1.0
  P  P7972  1  0.55546455  0.86192600  0.70957822  1.0
  P  P7973  1  0.66657566  0.00478314  0.70957822  1.0
  P  P7974  1  0.66657566  0.14764029  0.70957822  1.0
  P  P7975  1  0.66657566  0.29049743  0.70957822  1.0
  P  P7976  1  0.66657566  0.43335457  0.70957822  1.0
  P  P7977  1  0.66657566  0.57621171  0.70957822  1.0
  P  P7978  1  0.66657566  0.71906886  0.70957822  1.0
  P  P7979  1  0.66657566  0.86192600  0.70957822  1.0
  P  P7980  1  0.77768677  0.00478314  0.70957822  1.0
  P  P7981  1  0.77768677  0.14764029  0.70957822  1.0
  P  P7982  1  0.77768677  0.29049743  0.70957822  1.0
  P  P7983  1  0.77768677  0.43335457  0.70957822  1.0
  P  P7984  1  0.77768677  0.57621171  0.70957822  1.0
  P  P7985  1  0.77768677  0.71906886  0.70957822  1.0
  P  P7986  1  0.77768677  0.86192600  0.70957822  1.0
  P  P7987  1  0.88879788  0.00478314  0.70957822  1.0
  P  P7988  1  0.88879788  0.14764029  0.70957822  1.0
  P  P7989  1  0.88879788  0.29049743  0.70957822  1.0
  P  P7990  1  0.88879788  0.43335457  0.70957822  1.0
  P  P7991  1  0.88879788  0.57621171  0.70957822  1.0
  P  P7992  1  0.88879788  0.71906886  0.70957822  1.0
  P  P7993  1  0.88879788  0.86192600  0.70957822  1.0
  P  P7994  1  0.99990899  0.00478314  0.70957822  1.0
  P  P7995  1  0.99990899  0.14764029  0.70957822  1.0
  P  P7996  1  0.99990899  0.29049743  0.70957822  1.0
  P  P7997  1  0.99990899  0.43335457  0.70957822  1.0
  P  P7998  1  0.99990899  0.57621171  0.70957822  1.0
  P  P7999  1  0.99990899  0.71906886  0.70957822  1.0
  P  P8000  1  0.99990899  0.86192600  0.70957822  1.0
  P  P8001  1  0.08985608  0.13403484  0.66195917  1.0
  P  P8002  1  0.08985608  0.27689199  0.66195917  1.0
  P  P8003  1  0.08985608  0.41974913  0.66195917  1.0
  P  P8004  1  0.08985608  0.56260627  0.66195917  1.0
  P  P8005  1  0.08985608  0.70546342  0.66195917  1.0
  P  P8006  1  0.08985608  0.84832056  0.66195917  1.0
  P  P8007  1  0.08985608  0.99117770  0.66195917  1.0
  P  P8008  1  0.20096719  0.13403484  0.66195917  1.0
  P  P8009  1  0.20096719  0.27689199  0.66195917  1.0
  P  P8010  1  0.20096719  0.41974913  0.66195917  1.0
  P  P8011  1  0.20096719  0.56260627  0.66195917  1.0
  P  P8012  1  0.20096719  0.70546342  0.66195917  1.0
  P  P8013  1  0.20096719  0.84832056  0.66195917  1.0
  P  P8014  1  0.20096719  0.99117770  0.66195917  1.0
  P  P8015  1  0.31207830  0.13403484  0.66195917  1.0
  P  P8016  1  0.31207830  0.27689199  0.66195917  1.0
  P  P8017  1  0.31207830  0.41974913  0.66195917  1.0
  P  P8018  1  0.31207830  0.56260627  0.66195917  1.0
  P  P8019  1  0.31207830  0.70546342  0.66195917  1.0
  P  P8020  1  0.31207830  0.84832056  0.66195917  1.0
  P  P8021  1  0.31207830  0.99117770  0.66195917  1.0
  P  P8022  1  0.42318942  0.13403484  0.66195917  1.0
  P  P8023  1  0.42318942  0.27689199  0.66195917  1.0
  P  P8024  1  0.42318942  0.41974913  0.66195917  1.0
  P  P8025  1  0.42318942  0.56260627  0.66195917  1.0
  P  P8026  1  0.42318942  0.70546342  0.66195917  1.0
  P  P8027  1  0.42318942  0.84832056  0.66195917  1.0
  P  P8028  1  0.42318942  0.99117770  0.66195917  1.0
  P  P8029  1  0.53430053  0.13403484  0.66195917  1.0
  P  P8030  1  0.53430053  0.27689199  0.66195917  1.0
  P  P8031  1  0.53430053  0.41974913  0.66195917  1.0
  P  P8032  1  0.53430053  0.56260627  0.66195917  1.0
  P  P8033  1  0.53430053  0.70546342  0.66195917  1.0
  P  P8034  1  0.53430053  0.84832056  0.66195917  1.0
  P  P8035  1  0.53430053  0.99117770  0.66195917  1.0
  P  P8036  1  0.64541164  0.13403484  0.66195917  1.0
  P  P8037  1  0.64541164  0.27689199  0.66195917  1.0
  P  P8038  1  0.64541164  0.41974913  0.66195917  1.0
  P  P8039  1  0.64541164  0.56260627  0.66195917  1.0
  P  P8040  1  0.64541164  0.70546342  0.66195917  1.0
  P  P8041  1  0.64541164  0.84832056  0.66195917  1.0
  P  P8042  1  0.64541164  0.99117770  0.66195917  1.0
  P  P8043  1  0.75652275  0.13403484  0.66195917  1.0
  P  P8044  1  0.75652275  0.27689199  0.66195917  1.0
  P  P8045  1  0.75652275  0.41974913  0.66195917  1.0
  P  P8046  1  0.75652275  0.56260627  0.66195917  1.0
  P  P8047  1  0.75652275  0.70546342  0.66195917  1.0
  P  P8048  1  0.75652275  0.84832056  0.66195917  1.0
  P  P8049  1  0.75652275  0.99117770  0.66195917  1.0
  P  P8050  1  0.86763386  0.13403484  0.66195917  1.0
  P  P8051  1  0.86763386  0.27689199  0.66195917  1.0
  P  P8052  1  0.86763386  0.41974913  0.66195917  1.0
  P  P8053  1  0.86763386  0.56260627  0.66195917  1.0
  P  P8054  1  0.86763386  0.70546342  0.66195917  1.0
  P  P8055  1  0.86763386  0.84832056  0.66195917  1.0
  P  P8056  1  0.86763386  0.99117770  0.66195917  1.0
  P  P8057  1  0.97874497  0.13403484  0.66195917  1.0
  P  P8058  1  0.97874497  0.27689199  0.66195917  1.0
  P  P8059  1  0.97874497  0.41974913  0.66195917  1.0
  P  P8060  1  0.97874497  0.56260627  0.66195917  1.0
  P  P8061  1  0.97874497  0.70546342  0.66195917  1.0
  P  P8062  1  0.97874497  0.84832056  0.66195917  1.0
  P  P8063  1  0.97874497  0.99117770  0.66195917  1.0
  P  P8064  1  0.01264188  0.12731611  0.67808977  1.0
  P  P8065  1  0.01264188  0.27017325  0.67808977  1.0
  P  P8066  1  0.01264188  0.41303040  0.67808977  1.0
  P  P8067  1  0.01264188  0.55588754  0.67808977  1.0
  P  P8068  1  0.01264188  0.69874468  0.67808977  1.0
  P  P8069  1  0.01264188  0.84160182  0.67808977  1.0
  P  P8070  1  0.01264188  0.98445897  0.67808977  1.0
  P  P8071  1  0.12375299  0.12731611  0.67808977  1.0
  P  P8072  1  0.12375299  0.27017325  0.67808977  1.0
  P  P8073  1  0.12375299  0.41303040  0.67808977  1.0
  P  P8074  1  0.12375299  0.55588754  0.67808977  1.0
  P  P8075  1  0.12375299  0.69874468  0.67808977  1.0
  P  P8076  1  0.12375299  0.84160182  0.67808977  1.0
  P  P8077  1  0.12375299  0.98445897  0.67808977  1.0
  P  P8078  1  0.23486410  0.12731611  0.67808977  1.0
  P  P8079  1  0.23486410  0.27017325  0.67808977  1.0
  P  P8080  1  0.23486410  0.41303040  0.67808977  1.0
  P  P8081  1  0.23486410  0.55588754  0.67808977  1.0
  P  P8082  1  0.23486410  0.69874468  0.67808977  1.0
  P  P8083  1  0.23486410  0.84160182  0.67808977  1.0
  P  P8084  1  0.23486410  0.98445897  0.67808977  1.0
  P  P8085  1  0.34597521  0.12731611  0.67808977  1.0
  P  P8086  1  0.34597521  0.27017325  0.67808977  1.0
  P  P8087  1  0.34597521  0.41303040  0.67808977  1.0
  P  P8088  1  0.34597521  0.55588754  0.67808977  1.0
  P  P8089  1  0.34597521  0.69874468  0.67808977  1.0
  P  P8090  1  0.34597521  0.84160182  0.67808977  1.0
  P  P8091  1  0.34597521  0.98445897  0.67808977  1.0
  P  P8092  1  0.45708632  0.12731611  0.67808977  1.0
  P  P8093  1  0.45708632  0.27017325  0.67808977  1.0
  P  P8094  1  0.45708632  0.41303040  0.67808977  1.0
  P  P8095  1  0.45708632  0.55588754  0.67808977  1.0
  P  P8096  1  0.45708632  0.69874468  0.67808977  1.0
  P  P8097  1  0.45708632  0.84160182  0.67808977  1.0
  P  P8098  1  0.45708632  0.98445897  0.67808977  1.0
  P  P8099  1  0.56819743  0.12731611  0.67808977  1.0
  P  P8100  1  0.56819743  0.27017325  0.67808977  1.0
  P  P8101  1  0.56819743  0.41303040  0.67808977  1.0
  P  P8102  1  0.56819743  0.55588754  0.67808977  1.0
  P  P8103  1  0.56819743  0.69874468  0.67808977  1.0
  P  P8104  1  0.56819743  0.84160182  0.67808977  1.0
  P  P8105  1  0.56819743  0.98445897  0.67808977  1.0
  P  P8106  1  0.67930855  0.12731611  0.67808977  1.0
  P  P8107  1  0.67930855  0.27017325  0.67808977  1.0
  P  P8108  1  0.67930855  0.41303040  0.67808977  1.0
  P  P8109  1  0.67930855  0.55588754  0.67808977  1.0
  P  P8110  1  0.67930855  0.69874468  0.67808977  1.0
  P  P8111  1  0.67930855  0.84160182  0.67808977  1.0
  P  P8112  1  0.67930855  0.98445897  0.67808977  1.0
  P  P8113  1  0.79041966  0.12731611  0.67808977  1.0
  P  P8114  1  0.79041966  0.27017325  0.67808977  1.0
  P  P8115  1  0.79041966  0.41303040  0.67808977  1.0
  P  P8116  1  0.79041966  0.55588754  0.67808977  1.0
  P  P8117  1  0.79041966  0.69874468  0.67808977  1.0
  P  P8118  1  0.79041966  0.84160182  0.67808977  1.0
  P  P8119  1  0.79041966  0.98445897  0.67808977  1.0
  P  P8120  1  0.90153077  0.12731611  0.67808977  1.0
  P  P8121  1  0.90153077  0.27017325  0.67808977  1.0
  P  P8122  1  0.90153077  0.41303040  0.67808977  1.0
  P  P8123  1  0.90153077  0.55588754  0.67808977  1.0
  P  P8124  1  0.90153077  0.69874468  0.67808977  1.0
  P  P8125  1  0.90153077  0.84160182  0.67808977  1.0
  P  P8126  1  0.90153077  0.98445897  0.67808977  1.0
  P  P8127  1  0.03380590  0.14092155  0.72570881  1.0
  P  P8128  1  0.03380590  0.28377869  0.72570881  1.0
  P  P8129  1  0.03380590  0.42663584  0.72570881  1.0
  P  P8130  1  0.03380590  0.56949298  0.72570881  1.0
  P  P8131  1  0.03380590  0.71235012  0.72570881  1.0
  P  P8132  1  0.03380590  0.85520727  0.72570881  1.0
  P  P8133  1  0.03380590  0.99806441  0.72570881  1.0
  P  P8134  1  0.14491701  0.14092155  0.72570881  1.0
  P  P8135  1  0.14491701  0.28377869  0.72570881  1.0
  P  P8136  1  0.14491701  0.42663584  0.72570881  1.0
  P  P8137  1  0.14491701  0.56949298  0.72570881  1.0
  P  P8138  1  0.14491701  0.71235012  0.72570881  1.0
  P  P8139  1  0.14491701  0.85520727  0.72570881  1.0
  P  P8140  1  0.14491701  0.99806441  0.72570881  1.0
  P  P8141  1  0.25602812  0.14092155  0.72570881  1.0
  P  P8142  1  0.25602812  0.28377869  0.72570881  1.0
  P  P8143  1  0.25602812  0.42663584  0.72570881  1.0
  P  P8144  1  0.25602812  0.56949298  0.72570881  1.0
  P  P8145  1  0.25602812  0.71235012  0.72570881  1.0
  P  P8146  1  0.25602812  0.85520727  0.72570881  1.0
  P  P8147  1  0.25602812  0.99806441  0.72570881  1.0
  P  P8148  1  0.36713923  0.14092155  0.72570881  1.0
  P  P8149  1  0.36713923  0.28377869  0.72570881  1.0
  P  P8150  1  0.36713923  0.42663584  0.72570881  1.0
  P  P8151  1  0.36713923  0.56949298  0.72570881  1.0
  P  P8152  1  0.36713923  0.71235012  0.72570881  1.0
  P  P8153  1  0.36713923  0.85520727  0.72570881  1.0
  P  P8154  1  0.36713923  0.99806441  0.72570881  1.0
  P  P8155  1  0.47825034  0.14092155  0.72570881  1.0
  P  P8156  1  0.47825034  0.28377869  0.72570881  1.0
  P  P8157  1  0.47825034  0.42663584  0.72570881  1.0
  P  P8158  1  0.47825034  0.56949298  0.72570881  1.0
  P  P8159  1  0.47825034  0.71235012  0.72570881  1.0
  P  P8160  1  0.47825034  0.85520727  0.72570881  1.0
  P  P8161  1  0.47825034  0.99806441  0.72570881  1.0
  P  P8162  1  0.58936146  0.14092155  0.72570881  1.0
  P  P8163  1  0.58936146  0.28377869  0.72570881  1.0
  P  P8164  1  0.58936146  0.42663584  0.72570881  1.0
  P  P8165  1  0.58936146  0.56949298  0.72570881  1.0
  P  P8166  1  0.58936146  0.71235012  0.72570881  1.0
  P  P8167  1  0.58936146  0.85520727  0.72570881  1.0
  P  P8168  1  0.58936146  0.99806441  0.72570881  1.0
  P  P8169  1  0.70047257  0.14092155  0.72570881  1.0
  P  P8170  1  0.70047257  0.28377869  0.72570881  1.0
  P  P8171  1  0.70047257  0.42663584  0.72570881  1.0
  P  P8172  1  0.70047257  0.56949298  0.72570881  1.0
  P  P8173  1  0.70047257  0.71235012  0.72570881  1.0
  P  P8174  1  0.70047257  0.85520727  0.72570881  1.0
  P  P8175  1  0.70047257  0.99806441  0.72570881  1.0
  P  P8176  1  0.81158368  0.14092155  0.72570881  1.0
  P  P8177  1  0.81158368  0.28377869  0.72570881  1.0
  P  P8178  1  0.81158368  0.42663584  0.72570881  1.0
  P  P8179  1  0.81158368  0.56949298  0.72570881  1.0
  P  P8180  1  0.81158368  0.71235012  0.72570881  1.0
  P  P8181  1  0.81158368  0.85520727  0.72570881  1.0
  P  P8182  1  0.81158368  0.99806441  0.72570881  1.0
  P  P8183  1  0.92269479  0.14092155  0.72570881  1.0
  P  P8184  1  0.92269479  0.28377869  0.72570881  1.0
  P  P8185  1  0.92269479  0.42663584  0.72570881  1.0
  P  P8186  1  0.92269479  0.56949298  0.72570881  1.0
  P  P8187  1  0.92269479  0.71235012  0.72570881  1.0
  P  P8188  1  0.92269479  0.85520727  0.72570881  1.0
  P  P8189  1  0.92269479  0.99806441  0.72570881  1.0
  P  P8190  1  0.05714269  0.06596305  0.71335404  1.0
  P  P8191  1  0.05714269  0.20882019  0.71335404  1.0
  P  P8192  1  0.05714269  0.35167733  0.71335404  1.0
  P  P8193  1  0.05714269  0.49453447  0.71335404  1.0
  P  P8194  1  0.05714269  0.63739162  0.71335404  1.0
  P  P8195  1  0.05714269  0.78024876  0.71335404  1.0
  P  P8196  1  0.05714269  0.92310590  0.71335404  1.0
  P  P8197  1  0.16825380  0.06596305  0.71335404  1.0
  P  P8198  1  0.16825380  0.20882019  0.71335404  1.0
  P  P8199  1  0.16825380  0.35167733  0.71335404  1.0
  P  P8200  1  0.16825380  0.49453447  0.71335404  1.0
  P  P8201  1  0.16825380  0.63739162  0.71335404  1.0
  P  P8202  1  0.16825380  0.78024876  0.71335404  1.0
  P  P8203  1  0.16825380  0.92310590  0.71335404  1.0
  P  P8204  1  0.27936491  0.06596305  0.71335404  1.0
  P  P8205  1  0.27936491  0.20882019  0.71335404  1.0
  P  P8206  1  0.27936491  0.35167733  0.71335404  1.0
  P  P8207  1  0.27936491  0.49453447  0.71335404  1.0
  P  P8208  1  0.27936491  0.63739162  0.71335404  1.0
  P  P8209  1  0.27936491  0.78024876  0.71335404  1.0
  P  P8210  1  0.27936491  0.92310590  0.71335404  1.0
  P  P8211  1  0.39047603  0.06596305  0.71335404  1.0
  P  P8212  1  0.39047603  0.20882019  0.71335404  1.0
  P  P8213  1  0.39047603  0.35167733  0.71335404  1.0
  P  P8214  1  0.39047603  0.49453447  0.71335404  1.0
  P  P8215  1  0.39047603  0.63739162  0.71335404  1.0
  P  P8216  1  0.39047603  0.78024876  0.71335404  1.0
  P  P8217  1  0.39047603  0.92310590  0.71335404  1.0
  P  P8218  1  0.50158714  0.06596305  0.71335404  1.0
  P  P8219  1  0.50158714  0.20882019  0.71335404  1.0
  P  P8220  1  0.50158714  0.35167733  0.71335404  1.0
  P  P8221  1  0.50158714  0.49453447  0.71335404  1.0
  P  P8222  1  0.50158714  0.63739162  0.71335404  1.0
  P  P8223  1  0.50158714  0.78024876  0.71335404  1.0
  P  P8224  1  0.50158714  0.92310590  0.71335404  1.0
  P  P8225  1  0.61269825  0.06596305  0.71335404  1.0
  P  P8226  1  0.61269825  0.20882019  0.71335404  1.0
  P  P8227  1  0.61269825  0.35167733  0.71335404  1.0
  P  P8228  1  0.61269825  0.49453447  0.71335404  1.0
  P  P8229  1  0.61269825  0.63739162  0.71335404  1.0
  P  P8230  1  0.61269825  0.78024876  0.71335404  1.0
  P  P8231  1  0.61269825  0.92310590  0.71335404  1.0
  P  P8232  1  0.72380936  0.06596305  0.71335404  1.0
  P  P8233  1  0.72380936  0.20882019  0.71335404  1.0
  P  P8234  1  0.72380936  0.35167733  0.71335404  1.0
  P  P8235  1  0.72380936  0.49453447  0.71335404  1.0
  P  P8236  1  0.72380936  0.63739162  0.71335404  1.0
  P  P8237  1  0.72380936  0.78024876  0.71335404  1.0
  P  P8238  1  0.72380936  0.92310590  0.71335404  1.0
  P  P8239  1  0.83492047  0.06596305  0.71335404  1.0
  P  P8240  1  0.83492047  0.20882019  0.71335404  1.0
  P  P8241  1  0.83492047  0.35167733  0.71335404  1.0
  P  P8242  1  0.83492047  0.49453447  0.71335404  1.0
  P  P8243  1  0.83492047  0.63739162  0.71335404  1.0
  P  P8244  1  0.83492047  0.78024876  0.71335404  1.0
  P  P8245  1  0.83492047  0.92310590  0.71335404  1.0
  P  P8246  1  0.94603158  0.06596305  0.71335404  1.0
  P  P8247  1  0.94603158  0.20882019  0.71335404  1.0
  P  P8248  1  0.94603158  0.35167733  0.71335404  1.0
  P  P8249  1  0.94603158  0.49453447  0.71335404  1.0
  P  P8250  1  0.94603158  0.63739162  0.71335404  1.0
  P  P8251  1  0.94603158  0.78024876  0.71335404  1.0
  P  P8252  1  0.94603158  0.92310590  0.71335404  1.0
  P  P8253  1  0.03597867  0.05235760  0.66573499  1.0
  P  P8254  1  0.03597867  0.19521475  0.66573499  1.0
  P  P8255  1  0.03597867  0.33807189  0.66573499  1.0
  P  P8256  1  0.03597867  0.48092903  0.66573499  1.0
  P  P8257  1  0.03597867  0.62378617  0.66573499  1.0
  P  P8258  1  0.03597867  0.76664332  0.66573499  1.0
  P  P8259  1  0.03597867  0.90950046  0.66573499  1.0
  P  P8260  1  0.14708978  0.05235760  0.66573499  1.0
  P  P8261  1  0.14708978  0.19521475  0.66573499  1.0
  P  P8262  1  0.14708978  0.33807189  0.66573499  1.0
  P  P8263  1  0.14708978  0.48092903  0.66573499  1.0
  P  P8264  1  0.14708978  0.62378617  0.66573499  1.0
  P  P8265  1  0.14708978  0.76664332  0.66573499  1.0
  P  P8266  1  0.14708978  0.90950046  0.66573499  1.0
  P  P8267  1  0.25820089  0.05235760  0.66573499  1.0
  P  P8268  1  0.25820089  0.19521475  0.66573499  1.0
  P  P8269  1  0.25820089  0.33807189  0.66573499  1.0
  P  P8270  1  0.25820089  0.48092903  0.66573499  1.0
  P  P8271  1  0.25820089  0.62378617  0.66573499  1.0
  P  P8272  1  0.25820089  0.76664332  0.66573499  1.0
  P  P8273  1  0.25820089  0.90950046  0.66573499  1.0
  P  P8274  1  0.36931200  0.05235760  0.66573499  1.0
  P  P8275  1  0.36931200  0.19521475  0.66573499  1.0
  P  P8276  1  0.36931200  0.33807189  0.66573499  1.0
  P  P8277  1  0.36931200  0.48092903  0.66573499  1.0
  P  P8278  1  0.36931200  0.62378617  0.66573499  1.0
  P  P8279  1  0.36931200  0.76664332  0.66573499  1.0
  P  P8280  1  0.36931200  0.90950046  0.66573499  1.0
  P  P8281  1  0.48042312  0.05235760  0.66573499  1.0
  P  P8282  1  0.48042312  0.19521475  0.66573499  1.0
  P  P8283  1  0.48042312  0.33807189  0.66573499  1.0
  P  P8284  1  0.48042312  0.48092903  0.66573499  1.0
  P  P8285  1  0.48042312  0.62378617  0.66573499  1.0
  P  P8286  1  0.48042312  0.76664332  0.66573499  1.0
  P  P8287  1  0.48042312  0.90950046  0.66573499  1.0
  P  P8288  1  0.59153423  0.05235760  0.66573499  1.0
  P  P8289  1  0.59153423  0.19521475  0.66573499  1.0
  P  P8290  1  0.59153423  0.33807189  0.66573499  1.0
  P  P8291  1  0.59153423  0.48092903  0.66573499  1.0
  P  P8292  1  0.59153423  0.62378617  0.66573499  1.0
  P  P8293  1  0.59153423  0.76664332  0.66573499  1.0
  P  P8294  1  0.59153423  0.90950046  0.66573499  1.0
  P  P8295  1  0.70264534  0.05235760  0.66573499  1.0
  P  P8296  1  0.70264534  0.19521475  0.66573499  1.0
  P  P8297  1  0.70264534  0.33807189  0.66573499  1.0
  P  P8298  1  0.70264534  0.48092903  0.66573499  1.0
  P  P8299  1  0.70264534  0.62378617  0.66573499  1.0
  P  P8300  1  0.70264534  0.76664332  0.66573499  1.0
  P  P8301  1  0.70264534  0.90950046  0.66573499  1.0
  P  P8302  1  0.81375645  0.05235760  0.66573499  1.0
  P  P8303  1  0.81375645  0.19521475  0.66573499  1.0
  P  P8304  1  0.81375645  0.33807189  0.66573499  1.0
  P  P8305  1  0.81375645  0.48092903  0.66573499  1.0
  P  P8306  1  0.81375645  0.62378617  0.66573499  1.0
  P  P8307  1  0.81375645  0.76664332  0.66573499  1.0
  P  P8308  1  0.81375645  0.90950046  0.66573499  1.0
  P  P8309  1  0.92486756  0.05235760  0.66573499  1.0
  P  P8310  1  0.92486756  0.19521475  0.66573499  1.0
  P  P8311  1  0.92486756  0.33807189  0.66573499  1.0
  P  P8312  1  0.92486756  0.48092903  0.66573499  1.0
  P  P8313  1  0.92486756  0.62378617  0.66573499  1.0
  P  P8314  1  0.92486756  0.76664332  0.66573499  1.0
  P  P8315  1  0.92486756  0.90950046  0.66573499  1.0
  P  P8316  1  0.06651929  0.06613621  0.67431394  1.0
  P  P8317  1  0.06651929  0.20899335  0.67431394  1.0
  P  P8318  1  0.06651929  0.35185049  0.67431394  1.0
  P  P8319  1  0.06651929  0.49470764  0.67431394  1.0
  P  P8320  1  0.06651929  0.63756478  0.67431394  1.0
  P  P8321  1  0.06651929  0.78042192  0.67431394  1.0
  P  P8322  1  0.06651929  0.92327906  0.67431394  1.0
  P  P8323  1  0.17763040  0.06613621  0.67431394  1.0
  P  P8324  1  0.17763040  0.20899335  0.67431394  1.0
  P  P8325  1  0.17763040  0.35185049  0.67431394  1.0
  P  P8326  1  0.17763040  0.49470764  0.67431394  1.0
  P  P8327  1  0.17763040  0.63756478  0.67431394  1.0
  P  P8328  1  0.17763040  0.78042192  0.67431394  1.0
  P  P8329  1  0.17763040  0.92327906  0.67431394  1.0
  P  P8330  1  0.28874151  0.06613621  0.67431394  1.0
  P  P8331  1  0.28874151  0.20899335  0.67431394  1.0
  P  P8332  1  0.28874151  0.35185049  0.67431394  1.0
  P  P8333  1  0.28874151  0.49470764  0.67431394  1.0
  P  P8334  1  0.28874151  0.63756478  0.67431394  1.0
  P  P8335  1  0.28874151  0.78042192  0.67431394  1.0
  P  P8336  1  0.28874151  0.92327906  0.67431394  1.0
  P  P8337  1  0.39985262  0.06613621  0.67431394  1.0
  P  P8338  1  0.39985262  0.20899335  0.67431394  1.0
  P  P8339  1  0.39985262  0.35185049  0.67431394  1.0
  P  P8340  1  0.39985262  0.49470764  0.67431394  1.0
  P  P8341  1  0.39985262  0.63756478  0.67431394  1.0
  P  P8342  1  0.39985262  0.78042192  0.67431394  1.0
  P  P8343  1  0.39985262  0.92327906  0.67431394  1.0
  P  P8344  1  0.51096373  0.06613621  0.67431394  1.0
  P  P8345  1  0.51096373  0.20899335  0.67431394  1.0
  P  P8346  1  0.51096373  0.35185049  0.67431394  1.0
  P  P8347  1  0.51096373  0.49470764  0.67431394  1.0
  P  P8348  1  0.51096373  0.63756478  0.67431394  1.0
  P  P8349  1  0.51096373  0.78042192  0.67431394  1.0
  P  P8350  1  0.51096373  0.92327906  0.67431394  1.0
  P  P8351  1  0.62207485  0.06613621  0.67431394  1.0
  P  P8352  1  0.62207485  0.20899335  0.67431394  1.0
  P  P8353  1  0.62207485  0.35185049  0.67431394  1.0
  P  P8354  1  0.62207485  0.49470764  0.67431394  1.0
  P  P8355  1  0.62207485  0.63756478  0.67431394  1.0
  P  P8356  1  0.62207485  0.78042192  0.67431394  1.0
  P  P8357  1  0.62207485  0.92327906  0.67431394  1.0
  P  P8358  1  0.73318596  0.06613621  0.67431394  1.0
  P  P8359  1  0.73318596  0.20899335  0.67431394  1.0
  P  P8360  1  0.73318596  0.35185049  0.67431394  1.0
  P  P8361  1  0.73318596  0.49470764  0.67431394  1.0
  P  P8362  1  0.73318596  0.63756478  0.67431394  1.0
  P  P8363  1  0.73318596  0.78042192  0.67431394  1.0
  P  P8364  1  0.73318596  0.92327906  0.67431394  1.0
  P  P8365  1  0.84429707  0.06613621  0.67431394  1.0
  P  P8366  1  0.84429707  0.20899335  0.67431394  1.0
  P  P8367  1  0.84429707  0.35185049  0.67431394  1.0
  P  P8368  1  0.84429707  0.49470764  0.67431394  1.0
  P  P8369  1  0.84429707  0.63756478  0.67431394  1.0
  P  P8370  1  0.84429707  0.78042192  0.67431394  1.0
  P  P8371  1  0.84429707  0.92327906  0.67431394  1.0
  P  P8372  1  0.95540818  0.06613621  0.67431394  1.0
  P  P8373  1  0.95540818  0.20899335  0.67431394  1.0
  P  P8374  1  0.95540818  0.35185049  0.67431394  1.0
  P  P8375  1  0.95540818  0.49470764  0.67431394  1.0
  P  P8376  1  0.95540818  0.63756478  0.67431394  1.0
  P  P8377  1  0.95540818  0.78042192  0.67431394  1.0
  P  P8378  1  0.95540818  0.92327906  0.67431394  1.0
  P  P8379  1  0.08768331  0.07974165  0.72193299  1.0
  P  P8380  1  0.08768331  0.22259879  0.72193299  1.0
  P  P8381  1  0.08768331  0.36545594  0.72193299  1.0
  P  P8382  1  0.08768331  0.50831308  0.72193299  1.0
  P  P8383  1  0.08768331  0.65117022  0.72193299  1.0
  P  P8384  1  0.08768331  0.79402736  0.72193299  1.0
  P  P8385  1  0.08768331  0.93688451  0.72193299  1.0
  P  P8386  1  0.19879442  0.07974165  0.72193299  1.0
  P  P8387  1  0.19879442  0.22259879  0.72193299  1.0
  P  P8388  1  0.19879442  0.36545594  0.72193299  1.0
  P  P8389  1  0.19879442  0.50831308  0.72193299  1.0
  P  P8390  1  0.19879442  0.65117022  0.72193299  1.0
  P  P8391  1  0.19879442  0.79402736  0.72193299  1.0
  P  P8392  1  0.19879442  0.93688451  0.72193299  1.0
  P  P8393  1  0.30990553  0.07974165  0.72193299  1.0
  P  P8394  1  0.30990553  0.22259879  0.72193299  1.0
  P  P8395  1  0.30990553  0.36545594  0.72193299  1.0
  P  P8396  1  0.30990553  0.50831308  0.72193299  1.0
  P  P8397  1  0.30990553  0.65117022  0.72193299  1.0
  P  P8398  1  0.30990553  0.79402736  0.72193299  1.0
  P  P8399  1  0.30990553  0.93688451  0.72193299  1.0
  P  P8400  1  0.42101664  0.07974165  0.72193299  1.0
  P  P8401  1  0.42101664  0.22259879  0.72193299  1.0
  P  P8402  1  0.42101664  0.36545594  0.72193299  1.0
  P  P8403  1  0.42101664  0.50831308  0.72193299  1.0
  P  P8404  1  0.42101664  0.65117022  0.72193299  1.0
  P  P8405  1  0.42101664  0.79402736  0.72193299  1.0
  P  P8406  1  0.42101664  0.93688451  0.72193299  1.0
  P  P8407  1  0.53212776  0.07974165  0.72193299  1.0
  P  P8408  1  0.53212776  0.22259879  0.72193299  1.0
  P  P8409  1  0.53212776  0.36545594  0.72193299  1.0
  P  P8410  1  0.53212776  0.50831308  0.72193299  1.0
  P  P8411  1  0.53212776  0.65117022  0.72193299  1.0
  P  P8412  1  0.53212776  0.79402736  0.72193299  1.0
  P  P8413  1  0.53212776  0.93688451  0.72193299  1.0
  P  P8414  1  0.64323887  0.07974165  0.72193299  1.0
  P  P8415  1  0.64323887  0.22259879  0.72193299  1.0
  P  P8416  1  0.64323887  0.36545594  0.72193299  1.0
  P  P8417  1  0.64323887  0.50831308  0.72193299  1.0
  P  P8418  1  0.64323887  0.65117022  0.72193299  1.0
  P  P8419  1  0.64323887  0.79402736  0.72193299  1.0
  P  P8420  1  0.64323887  0.93688451  0.72193299  1.0
  P  P8421  1  0.75434998  0.07974165  0.72193299  1.0
  P  P8422  1  0.75434998  0.22259879  0.72193299  1.0
  P  P8423  1  0.75434998  0.36545594  0.72193299  1.0
  P  P8424  1  0.75434998  0.50831308  0.72193299  1.0
  P  P8425  1  0.75434998  0.65117022  0.72193299  1.0
  P  P8426  1  0.75434998  0.79402736  0.72193299  1.0
  P  P8427  1  0.75434998  0.93688451  0.72193299  1.0
  P  P8428  1  0.86546109  0.07974165  0.72193299  1.0
  P  P8429  1  0.86546109  0.22259879  0.72193299  1.0
  P  P8430  1  0.86546109  0.36545594  0.72193299  1.0
  P  P8431  1  0.86546109  0.50831308  0.72193299  1.0
  P  P8432  1  0.86546109  0.65117022  0.72193299  1.0
  P  P8433  1  0.86546109  0.79402736  0.72193299  1.0
  P  P8434  1  0.86546109  0.93688451  0.72193299  1.0
  P  P8435  1  0.97657220  0.07974165  0.72193299  1.0
  P  P8436  1  0.97657220  0.22259879  0.72193299  1.0
  P  P8437  1  0.97657220  0.36545594  0.72193299  1.0
  P  P8438  1  0.97657220  0.50831308  0.72193299  1.0
  P  P8439  1  0.97657220  0.65117022  0.72193299  1.0
  P  P8440  1  0.97657220  0.79402736  0.72193299  1.0
  P  P8441  1  0.97657220  0.93688451  0.72193299  1.0
