# generated using pymatgen
data_Ti39O49
_symmetry_space_group_name_H-M   'P 1'
_cell_length_a   64.51858869
_cell_length_b   63.78965197
_cell_length_c   57.09621641
_cell_angle_alpha   90.88292157
_cell_angle_beta   91.93379111
_cell_angle_gamma   97.48910160
_symmetry_Int_Tables_number   1
_chemical_formula_structural   Ti39O49
_chemical_formula_sum   'Ti5148 O6468'
_cell_volume   232802.51396644
_cell_formula_units_Z   132
loop_
 _symmetry_equiv_pos_site_id
 _symmetry_equiv_pos_as_xyz
  1  'x, y, z'
loop_
 _atom_site_type_symbol
 _atom_site_label
 _atom_site_symmetry_multiplicity
 _atom_site_fract_x
 _atom_site_fract_y
 _atom_site_fract_z
 _atom_site_occupancy
  Ti  Ti0  1  0.05092418  0.04318163  0.23645113  1.0
  Ti  Ti1  1  0.05092418  0.20984830  0.23645113  1.0
  Ti  Ti2  1  0.05092418  0.37651496  0.23645113  1.0
  Ti  Ti3  1  0.05092418  0.54318163  0.23645113  1.0
  Ti  Ti4  1  0.05092418  0.70984830  0.23645113  1.0
  Ti  Ti5  1  0.05092418  0.87651496  0.23645113  1.0
  Ti  Ti6  1  0.14183328  0.04318163  0.23645113  1.0
  Ti  Ti7  1  0.14183328  0.20984830  0.23645113  1.0
  Ti  Ti8  1  0.14183328  0.37651496  0.23645113  1.0
  Ti  Ti9  1  0.14183328  0.54318163  0.23645113  1.0
  Ti  Ti10  1  0.14183328  0.70984830  0.23645113  1.0
  Ti  Ti11  1  0.14183328  0.87651496  0.23645113  1.0
  Ti  Ti12  1  0.23274237  0.04318163  0.23645113  1.0
  Ti  Ti13  1  0.23274237  0.20984830  0.23645113  1.0
  Ti  Ti14  1  0.23274237  0.37651496  0.23645113  1.0
  Ti  Ti15  1  0.23274237  0.54318163  0.23645113  1.0
  Ti  Ti16  1  0.23274237  0.70984830  0.23645113  1.0
  Ti  Ti17  1  0.23274237  0.87651496  0.23645113  1.0
  Ti  Ti18  1  0.32365146  0.04318163  0.23645113  1.0
  Ti  Ti19  1  0.32365146  0.20984830  0.23645113  1.0
  Ti  Ti20  1  0.32365146  0.37651496  0.23645113  1.0
  Ti  Ti21  1  0.32365146  0.54318163  0.23645113  1.0
  Ti  Ti22  1  0.32365146  0.70984830  0.23645113  1.0
  Ti  Ti23  1  0.32365146  0.87651496  0.23645113  1.0
  Ti  Ti24  1  0.41456055  0.04318163  0.23645113  1.0
  Ti  Ti25  1  0.41456055  0.20984830  0.23645113  1.0
  Ti  Ti26  1  0.41456055  0.37651496  0.23645113  1.0
  Ti  Ti27  1  0.41456055  0.54318163  0.23645113  1.0
  Ti  Ti28  1  0.41456055  0.70984830  0.23645113  1.0
  Ti  Ti29  1  0.41456055  0.87651496  0.23645113  1.0
  Ti  Ti30  1  0.50546964  0.04318163  0.23645113  1.0
  Ti  Ti31  1  0.50546964  0.20984830  0.23645113  1.0
  Ti  Ti32  1  0.50546964  0.37651496  0.23645113  1.0
  Ti  Ti33  1  0.50546964  0.54318163  0.23645113  1.0
  Ti  Ti34  1  0.50546964  0.70984830  0.23645113  1.0
  Ti  Ti35  1  0.50546964  0.87651496  0.23645113  1.0
  Ti  Ti36  1  0.59637873  0.04318163  0.23645113  1.0
  Ti  Ti37  1  0.59637873  0.20984830  0.23645113  1.0
  Ti  Ti38  1  0.59637873  0.37651496  0.23645113  1.0
  Ti  Ti39  1  0.59637873  0.54318163  0.23645113  1.0
  Ti  Ti40  1  0.59637873  0.70984830  0.23645113  1.0
  Ti  Ti41  1  0.59637873  0.87651496  0.23645113  1.0
  Ti  Ti42  1  0.68728782  0.04318163  0.23645113  1.0
  Ti  Ti43  1  0.68728782  0.20984830  0.23645113  1.0
  Ti  Ti44  1  0.68728782  0.37651496  0.23645113  1.0
  Ti  Ti45  1  0.68728782  0.54318163  0.23645113  1.0
  Ti  Ti46  1  0.68728782  0.70984830  0.23645113  1.0
  Ti  Ti47  1  0.68728782  0.87651496  0.23645113  1.0
  Ti  Ti48  1  0.77819691  0.04318163  0.23645113  1.0
  Ti  Ti49  1  0.77819691  0.20984830  0.23645113  1.0
  Ti  Ti50  1  0.77819691  0.37651496  0.23645113  1.0
  Ti  Ti51  1  0.77819691  0.54318163  0.23645113  1.0
  Ti  Ti52  1  0.77819691  0.70984830  0.23645113  1.0
  Ti  Ti53  1  0.77819691  0.87651496  0.23645113  1.0
  Ti  Ti54  1  0.86910600  0.04318163  0.23645113  1.0
  Ti  Ti55  1  0.86910600  0.20984830  0.23645113  1.0
  Ti  Ti56  1  0.86910600  0.37651496  0.23645113  1.0
  Ti  Ti57  1  0.86910600  0.54318163  0.23645113  1.0
  Ti  Ti58  1  0.86910600  0.70984830  0.23645113  1.0
  Ti  Ti59  1  0.86910600  0.87651496  0.23645113  1.0
  Ti  Ti60  1  0.96001509  0.04318163  0.23645113  1.0
  Ti  Ti61  1  0.96001509  0.20984830  0.23645113  1.0
  Ti  Ti62  1  0.96001509  0.37651496  0.23645113  1.0
  Ti  Ti63  1  0.96001509  0.54318163  0.23645113  1.0
  Ti  Ti64  1  0.96001509  0.70984830  0.23645113  1.0
  Ti  Ti65  1  0.96001509  0.87651496  0.23645113  1.0
  Ti  Ti66  1  0.00546964  0.03127687  0.30787971  1.0
  Ti  Ti67  1  0.00546964  0.19794353  0.30787971  1.0
  Ti  Ti68  1  0.00546964  0.36461020  0.30787971  1.0
  Ti  Ti69  1  0.00546964  0.53127687  0.30787971  1.0
  Ti  Ti70  1  0.00546964  0.69794353  0.30787971  1.0
  Ti  Ti71  1  0.00546964  0.86461020  0.30787971  1.0
  Ti  Ti72  1  0.09637873  0.03127687  0.30787971  1.0
  Ti  Ti73  1  0.09637873  0.19794353  0.30787971  1.0
  Ti  Ti74  1  0.09637873  0.36461020  0.30787971  1.0
  Ti  Ti75  1  0.09637873  0.53127687  0.30787971  1.0
  Ti  Ti76  1  0.09637873  0.69794353  0.30787971  1.0
  Ti  Ti77  1  0.09637873  0.86461020  0.30787971  1.0
  Ti  Ti78  1  0.18728782  0.03127687  0.30787971  1.0
  Ti  Ti79  1  0.18728782  0.19794353  0.30787971  1.0
  Ti  Ti80  1  0.18728782  0.36461020  0.30787971  1.0
  Ti  Ti81  1  0.18728782  0.53127687  0.30787971  1.0
  Ti  Ti82  1  0.18728782  0.69794353  0.30787971  1.0
  Ti  Ti83  1  0.18728782  0.86461020  0.30787971  1.0
  Ti  Ti84  1  0.27819691  0.03127687  0.30787971  1.0
  Ti  Ti85  1  0.27819691  0.19794353  0.30787971  1.0
  Ti  Ti86  1  0.27819691  0.36461020  0.30787971  1.0
  Ti  Ti87  1  0.27819691  0.53127687  0.30787971  1.0
  Ti  Ti88  1  0.27819691  0.69794353  0.30787971  1.0
  Ti  Ti89  1  0.27819691  0.86461020  0.30787971  1.0
  Ti  Ti90  1  0.36910600  0.03127687  0.30787971  1.0
  Ti  Ti91  1  0.36910600  0.19794353  0.30787971  1.0
  Ti  Ti92  1  0.36910600  0.36461020  0.30787971  1.0
  Ti  Ti93  1  0.36910600  0.53127687  0.30787971  1.0
  Ti  Ti94  1  0.36910600  0.69794353  0.30787971  1.0
  Ti  Ti95  1  0.36910600  0.86461020  0.30787971  1.0
  Ti  Ti96  1  0.46001509  0.03127687  0.30787971  1.0
  Ti  Ti97  1  0.46001509  0.19794353  0.30787971  1.0
  Ti  Ti98  1  0.46001509  0.36461020  0.30787971  1.0
  Ti  Ti99  1  0.46001509  0.53127687  0.30787971  1.0
  Ti  Ti100  1  0.46001509  0.69794353  0.30787971  1.0
  Ti  Ti101  1  0.46001509  0.86461020  0.30787971  1.0
  Ti  Ti102  1  0.55092418  0.03127687  0.30787971  1.0
  Ti  Ti103  1  0.55092418  0.19794353  0.30787971  1.0
  Ti  Ti104  1  0.55092418  0.36461020  0.30787971  1.0
  Ti  Ti105  1  0.55092418  0.53127687  0.30787971  1.0
  Ti  Ti106  1  0.55092418  0.69794353  0.30787971  1.0
  Ti  Ti107  1  0.55092418  0.86461020  0.30787971  1.0
  Ti  Ti108  1  0.64183328  0.03127687  0.30787971  1.0
  Ti  Ti109  1  0.64183328  0.19794353  0.30787971  1.0
  Ti  Ti110  1  0.64183328  0.36461020  0.30787971  1.0
  Ti  Ti111  1  0.64183328  0.53127687  0.30787971  1.0
  Ti  Ti112  1  0.64183328  0.69794353  0.30787971  1.0
  Ti  Ti113  1  0.64183328  0.86461020  0.30787971  1.0
  Ti  Ti114  1  0.73274237  0.03127687  0.30787971  1.0
  Ti  Ti115  1  0.73274237  0.19794353  0.30787971  1.0
  Ti  Ti116  1  0.73274237  0.36461020  0.30787971  1.0
  Ti  Ti117  1  0.73274237  0.53127687  0.30787971  1.0
  Ti  Ti118  1  0.73274237  0.69794353  0.30787971  1.0
  Ti  Ti119  1  0.73274237  0.86461020  0.30787971  1.0
  Ti  Ti120  1  0.82365146  0.03127687  0.30787971  1.0
  Ti  Ti121  1  0.82365146  0.19794353  0.30787971  1.0
  Ti  Ti122  1  0.82365146  0.36461020  0.30787971  1.0
  Ti  Ti123  1  0.82365146  0.53127687  0.30787971  1.0
  Ti  Ti124  1  0.82365146  0.69794353  0.30787971  1.0
  Ti  Ti125  1  0.82365146  0.86461020  0.30787971  1.0
  Ti  Ti126  1  0.91456055  0.03127687  0.30787971  1.0
  Ti  Ti127  1  0.91456055  0.19794353  0.30787971  1.0
  Ti  Ti128  1  0.91456055  0.36461020  0.30787971  1.0
  Ti  Ti129  1  0.91456055  0.53127687  0.30787971  1.0
  Ti  Ti130  1  0.91456055  0.69794353  0.30787971  1.0
  Ti  Ti131  1  0.91456055  0.86461020  0.30787971  1.0
  Ti  Ti132  1  0.02023397  0.12427201  0.32776873  1.0
  Ti  Ti133  1  0.02023397  0.29093868  0.32776873  1.0
  Ti  Ti134  1  0.02023397  0.45760535  0.32776873  1.0
  Ti  Ti135  1  0.02023397  0.62427201  0.32776873  1.0
  Ti  Ti136  1  0.02023397  0.79093868  0.32776873  1.0
  Ti  Ti137  1  0.02023397  0.95760535  0.32776873  1.0
  Ti  Ti138  1  0.11114306  0.12427201  0.32776873  1.0
  Ti  Ti139  1  0.11114306  0.29093868  0.32776873  1.0
  Ti  Ti140  1  0.11114306  0.45760535  0.32776873  1.0
  Ti  Ti141  1  0.11114306  0.62427201  0.32776873  1.0
  Ti  Ti142  1  0.11114306  0.79093868  0.32776873  1.0
  Ti  Ti143  1  0.11114306  0.95760535  0.32776873  1.0
  Ti  Ti144  1  0.20205216  0.12427201  0.32776873  1.0
  Ti  Ti145  1  0.20205216  0.29093868  0.32776873  1.0
  Ti  Ti146  1  0.20205216  0.45760535  0.32776873  1.0
  Ti  Ti147  1  0.20205216  0.62427201  0.32776873  1.0
  Ti  Ti148  1  0.20205216  0.79093868  0.32776873  1.0
  Ti  Ti149  1  0.20205216  0.95760535  0.32776873  1.0
  Ti  Ti150  1  0.29296125  0.12427201  0.32776873  1.0
  Ti  Ti151  1  0.29296125  0.29093868  0.32776873  1.0
  Ti  Ti152  1  0.29296125  0.45760535  0.32776873  1.0
  Ti  Ti153  1  0.29296125  0.62427201  0.32776873  1.0
  Ti  Ti154  1  0.29296125  0.79093868  0.32776873  1.0
  Ti  Ti155  1  0.29296125  0.95760535  0.32776873  1.0
  Ti  Ti156  1  0.38387034  0.12427201  0.32776873  1.0
  Ti  Ti157  1  0.38387034  0.29093868  0.32776873  1.0
  Ti  Ti158  1  0.38387034  0.45760535  0.32776873  1.0
  Ti  Ti159  1  0.38387034  0.62427201  0.32776873  1.0
  Ti  Ti160  1  0.38387034  0.79093868  0.32776873  1.0
  Ti  Ti161  1  0.38387034  0.95760535  0.32776873  1.0
  Ti  Ti162  1  0.47477943  0.12427201  0.32776873  1.0
  Ti  Ti163  1  0.47477943  0.29093868  0.32776873  1.0
  Ti  Ti164  1  0.47477943  0.45760535  0.32776873  1.0
  Ti  Ti165  1  0.47477943  0.62427201  0.32776873  1.0
  Ti  Ti166  1  0.47477943  0.79093868  0.32776873  1.0
  Ti  Ti167  1  0.47477943  0.95760535  0.32776873  1.0
  Ti  Ti168  1  0.56568852  0.12427201  0.32776873  1.0
  Ti  Ti169  1  0.56568852  0.29093868  0.32776873  1.0
  Ti  Ti170  1  0.56568852  0.45760535  0.32776873  1.0
  Ti  Ti171  1  0.56568852  0.62427201  0.32776873  1.0
  Ti  Ti172  1  0.56568852  0.79093868  0.32776873  1.0
  Ti  Ti173  1  0.56568852  0.95760535  0.32776873  1.0
  Ti  Ti174  1  0.65659761  0.12427201  0.32776873  1.0
  Ti  Ti175  1  0.65659761  0.29093868  0.32776873  1.0
  Ti  Ti176  1  0.65659761  0.45760535  0.32776873  1.0
  Ti  Ti177  1  0.65659761  0.62427201  0.32776873  1.0
  Ti  Ti178  1  0.65659761  0.79093868  0.32776873  1.0
  Ti  Ti179  1  0.65659761  0.95760535  0.32776873  1.0
  Ti  Ti180  1  0.74750670  0.12427201  0.32776873  1.0
  Ti  Ti181  1  0.74750670  0.29093868  0.32776873  1.0
  Ti  Ti182  1  0.74750670  0.45760535  0.32776873  1.0
  Ti  Ti183  1  0.74750670  0.62427201  0.32776873  1.0
  Ti  Ti184  1  0.74750670  0.79093868  0.32776873  1.0
  Ti  Ti185  1  0.74750670  0.95760535  0.32776873  1.0
  Ti  Ti186  1  0.83841579  0.12427201  0.32776873  1.0
  Ti  Ti187  1  0.83841579  0.29093868  0.32776873  1.0
  Ti  Ti188  1  0.83841579  0.45760535  0.32776873  1.0
  Ti  Ti189  1  0.83841579  0.62427201  0.32776873  1.0
  Ti  Ti190  1  0.83841579  0.79093868  0.32776873  1.0
  Ti  Ti191  1  0.83841579  0.95760535  0.32776873  1.0
  Ti  Ti192  1  0.92932488  0.12427201  0.32776873  1.0
  Ti  Ti193  1  0.92932488  0.29093868  0.32776873  1.0
  Ti  Ti194  1  0.92932488  0.45760535  0.32776873  1.0
  Ti  Ti195  1  0.92932488  0.62427201  0.32776873  1.0
  Ti  Ti196  1  0.92932488  0.79093868  0.32776873  1.0
  Ti  Ti197  1  0.92932488  0.95760535  0.32776873  1.0
  Ti  Ti198  1  0.06568852  0.13617677  0.25634015  1.0
  Ti  Ti199  1  0.06568852  0.30284344  0.25634015  1.0
  Ti  Ti200  1  0.06568852  0.46951011  0.25634015  1.0
  Ti  Ti201  1  0.06568852  0.63617677  0.25634015  1.0
  Ti  Ti202  1  0.06568852  0.80284344  0.25634015  1.0
  Ti  Ti203  1  0.06568852  0.96951011  0.25634015  1.0
  Ti  Ti204  1  0.15659761  0.13617677  0.25634015  1.0
  Ti  Ti205  1  0.15659761  0.30284344  0.25634015  1.0
  Ti  Ti206  1  0.15659761  0.46951011  0.25634015  1.0
  Ti  Ti207  1  0.15659761  0.63617677  0.25634015  1.0
  Ti  Ti208  1  0.15659761  0.80284344  0.25634015  1.0
  Ti  Ti209  1  0.15659761  0.96951011  0.25634015  1.0
  Ti  Ti210  1  0.24750670  0.13617677  0.25634015  1.0
  Ti  Ti211  1  0.24750670  0.30284344  0.25634015  1.0
  Ti  Ti212  1  0.24750670  0.46951011  0.25634015  1.0
  Ti  Ti213  1  0.24750670  0.63617677  0.25634015  1.0
  Ti  Ti214  1  0.24750670  0.80284344  0.25634015  1.0
  Ti  Ti215  1  0.24750670  0.96951011  0.25634015  1.0
  Ti  Ti216  1  0.33841579  0.13617677  0.25634015  1.0
  Ti  Ti217  1  0.33841579  0.30284344  0.25634015  1.0
  Ti  Ti218  1  0.33841579  0.46951011  0.25634015  1.0
  Ti  Ti219  1  0.33841579  0.63617677  0.25634015  1.0
  Ti  Ti220  1  0.33841579  0.80284344  0.25634015  1.0
  Ti  Ti221  1  0.33841579  0.96951011  0.25634015  1.0
  Ti  Ti222  1  0.42932488  0.13617677  0.25634015  1.0
  Ti  Ti223  1  0.42932488  0.30284344  0.25634015  1.0
  Ti  Ti224  1  0.42932488  0.46951011  0.25634015  1.0
  Ti  Ti225  1  0.42932488  0.63617677  0.25634015  1.0
  Ti  Ti226  1  0.42932488  0.80284344  0.25634015  1.0
  Ti  Ti227  1  0.42932488  0.96951011  0.25634015  1.0
  Ti  Ti228  1  0.52023397  0.13617677  0.25634015  1.0
  Ti  Ti229  1  0.52023397  0.30284344  0.25634015  1.0
  Ti  Ti230  1  0.52023397  0.46951011  0.25634015  1.0
  Ti  Ti231  1  0.52023397  0.63617677  0.25634015  1.0
  Ti  Ti232  1  0.52023397  0.80284344  0.25634015  1.0
  Ti  Ti233  1  0.52023397  0.96951011  0.25634015  1.0
  Ti  Ti234  1  0.61114306  0.13617677  0.25634015  1.0
  Ti  Ti235  1  0.61114306  0.30284344  0.25634015  1.0
  Ti  Ti236  1  0.61114306  0.46951011  0.25634015  1.0
  Ti  Ti237  1  0.61114306  0.63617677  0.25634015  1.0
  Ti  Ti238  1  0.61114306  0.80284344  0.25634015  1.0
  Ti  Ti239  1  0.61114306  0.96951011  0.25634015  1.0
  Ti  Ti240  1  0.70205216  0.13617677  0.25634015  1.0
  Ti  Ti241  1  0.70205216  0.30284344  0.25634015  1.0
  Ti  Ti242  1  0.70205216  0.46951011  0.25634015  1.0
  Ti  Ti243  1  0.70205216  0.63617677  0.25634015  1.0
  Ti  Ti244  1  0.70205216  0.80284344  0.25634015  1.0
  Ti  Ti245  1  0.70205216  0.96951011  0.25634015  1.0
  Ti  Ti246  1  0.79296125  0.13617677  0.25634015  1.0
  Ti  Ti247  1  0.79296125  0.30284344  0.25634015  1.0
  Ti  Ti248  1  0.79296125  0.46951011  0.25634015  1.0
  Ti  Ti249  1  0.79296125  0.63617677  0.25634015  1.0
  Ti  Ti250  1  0.79296125  0.80284344  0.25634015  1.0
  Ti  Ti251  1  0.79296125  0.96951011  0.25634015  1.0
  Ti  Ti252  1  0.88387034  0.13617677  0.25634015  1.0
  Ti  Ti253  1  0.88387034  0.30284344  0.25634015  1.0
  Ti  Ti254  1  0.88387034  0.46951011  0.25634015  1.0
  Ti  Ti255  1  0.88387034  0.63617677  0.25634015  1.0
  Ti  Ti256  1  0.88387034  0.80284344  0.25634015  1.0
  Ti  Ti257  1  0.88387034  0.96951011  0.25634015  1.0
  Ti  Ti258  1  0.97477943  0.13617677  0.25634015  1.0
  Ti  Ti259  1  0.97477943  0.30284344  0.25634015  1.0
  Ti  Ti260  1  0.97477943  0.46951011  0.25634015  1.0
  Ti  Ti261  1  0.97477943  0.63617677  0.25634015  1.0
  Ti  Ti262  1  0.97477943  0.80284344  0.25634015  1.0
  Ti  Ti263  1  0.97477943  0.96951011  0.25634015  1.0
  Ti  Ti264  1  0.05762150  0.08932376  0.24822047  1.0
  Ti  Ti265  1  0.05762150  0.25599042  0.24822047  1.0
  Ti  Ti266  1  0.05762150  0.42265709  0.24822047  1.0
  Ti  Ti267  1  0.05762150  0.58932376  0.24822047  1.0
  Ti  Ti268  1  0.05762150  0.75599042  0.24822047  1.0
  Ti  Ti269  1  0.05762150  0.92265709  0.24822047  1.0
  Ti  Ti270  1  0.14853059  0.08932376  0.24822047  1.0
  Ti  Ti271  1  0.14853059  0.25599042  0.24822047  1.0
  Ti  Ti272  1  0.14853059  0.42265709  0.24822047  1.0
  Ti  Ti273  1  0.14853059  0.58932376  0.24822047  1.0
  Ti  Ti274  1  0.14853059  0.75599042  0.24822047  1.0
  Ti  Ti275  1  0.14853059  0.92265709  0.24822047  1.0
  Ti  Ti276  1  0.23943968  0.08932376  0.24822047  1.0
  Ti  Ti277  1  0.23943968  0.25599042  0.24822047  1.0
  Ti  Ti278  1  0.23943968  0.42265709  0.24822047  1.0
  Ti  Ti279  1  0.23943968  0.58932376  0.24822047  1.0
  Ti  Ti280  1  0.23943968  0.75599042  0.24822047  1.0
  Ti  Ti281  1  0.23943968  0.92265709  0.24822047  1.0
  Ti  Ti282  1  0.33034877  0.08932376  0.24822047  1.0
  Ti  Ti283  1  0.33034877  0.25599042  0.24822047  1.0
  Ti  Ti284  1  0.33034877  0.42265709  0.24822047  1.0
  Ti  Ti285  1  0.33034877  0.58932376  0.24822047  1.0
  Ti  Ti286  1  0.33034877  0.75599042  0.24822047  1.0
  Ti  Ti287  1  0.33034877  0.92265709  0.24822047  1.0
  Ti  Ti288  1  0.42125786  0.08932376  0.24822047  1.0
  Ti  Ti289  1  0.42125786  0.25599042  0.24822047  1.0
  Ti  Ti290  1  0.42125786  0.42265709  0.24822047  1.0
  Ti  Ti291  1  0.42125786  0.58932376  0.24822047  1.0
  Ti  Ti292  1  0.42125786  0.75599042  0.24822047  1.0
  Ti  Ti293  1  0.42125786  0.92265709  0.24822047  1.0
  Ti  Ti294  1  0.51216695  0.08932376  0.24822047  1.0
  Ti  Ti295  1  0.51216695  0.25599042  0.24822047  1.0
  Ti  Ti296  1  0.51216695  0.42265709  0.24822047  1.0
  Ti  Ti297  1  0.51216695  0.58932376  0.24822047  1.0
  Ti  Ti298  1  0.51216695  0.75599042  0.24822047  1.0
  Ti  Ti299  1  0.51216695  0.92265709  0.24822047  1.0
  Ti  Ti300  1  0.60307604  0.08932376  0.24822047  1.0
  Ti  Ti301  1  0.60307604  0.25599042  0.24822047  1.0
  Ti  Ti302  1  0.60307604  0.42265709  0.24822047  1.0
  Ti  Ti303  1  0.60307604  0.58932376  0.24822047  1.0
  Ti  Ti304  1  0.60307604  0.75599042  0.24822047  1.0
  Ti  Ti305  1  0.60307604  0.92265709  0.24822047  1.0
  Ti  Ti306  1  0.69398513  0.08932376  0.24822047  1.0
  Ti  Ti307  1  0.69398513  0.25599042  0.24822047  1.0
  Ti  Ti308  1  0.69398513  0.42265709  0.24822047  1.0
  Ti  Ti309  1  0.69398513  0.58932376  0.24822047  1.0
  Ti  Ti310  1  0.69398513  0.75599042  0.24822047  1.0
  Ti  Ti311  1  0.69398513  0.92265709  0.24822047  1.0
  Ti  Ti312  1  0.78489423  0.08932376  0.24822047  1.0
  Ti  Ti313  1  0.78489423  0.25599042  0.24822047  1.0
  Ti  Ti314  1  0.78489423  0.42265709  0.24822047  1.0
  Ti  Ti315  1  0.78489423  0.58932376  0.24822047  1.0
  Ti  Ti316  1  0.78489423  0.75599042  0.24822047  1.0
  Ti  Ti317  1  0.78489423  0.92265709  0.24822047  1.0
  Ti  Ti318  1  0.87580332  0.08932376  0.24822047  1.0
  Ti  Ti319  1  0.87580332  0.25599042  0.24822047  1.0
  Ti  Ti320  1  0.87580332  0.42265709  0.24822047  1.0
  Ti  Ti321  1  0.87580332  0.58932376  0.24822047  1.0
  Ti  Ti322  1  0.87580332  0.75599042  0.24822047  1.0
  Ti  Ti323  1  0.87580332  0.92265709  0.24822047  1.0
  Ti  Ti324  1  0.96671241  0.08932376  0.24822047  1.0
  Ti  Ti325  1  0.96671241  0.25599042  0.24822047  1.0
  Ti  Ti326  1  0.96671241  0.42265709  0.24822047  1.0
  Ti  Ti327  1  0.96671241  0.58932376  0.24822047  1.0
  Ti  Ti328  1  0.96671241  0.75599042  0.24822047  1.0
  Ti  Ti329  1  0.96671241  0.92265709  0.24822047  1.0
  Ti  Ti330  1  0.01216695  0.07741899  0.31964904  1.0
  Ti  Ti331  1  0.01216695  0.24408566  0.31964904  1.0
  Ti  Ti332  1  0.01216695  0.41075233  0.31964904  1.0
  Ti  Ti333  1  0.01216695  0.57741899  0.31964904  1.0
  Ti  Ti334  1  0.01216695  0.74408566  0.31964904  1.0
  Ti  Ti335  1  0.01216695  0.91075233  0.31964904  1.0
  Ti  Ti336  1  0.10307604  0.07741899  0.31964904  1.0
  Ti  Ti337  1  0.10307604  0.24408566  0.31964904  1.0
  Ti  Ti338  1  0.10307604  0.41075233  0.31964904  1.0
  Ti  Ti339  1  0.10307604  0.57741899  0.31964904  1.0
  Ti  Ti340  1  0.10307604  0.74408566  0.31964904  1.0
  Ti  Ti341  1  0.10307604  0.91075233  0.31964904  1.0
  Ti  Ti342  1  0.19398513  0.07741899  0.31964904  1.0
  Ti  Ti343  1  0.19398513  0.24408566  0.31964904  1.0
  Ti  Ti344  1  0.19398513  0.41075233  0.31964904  1.0
  Ti  Ti345  1  0.19398513  0.57741899  0.31964904  1.0
  Ti  Ti346  1  0.19398513  0.74408566  0.31964904  1.0
  Ti  Ti347  1  0.19398513  0.91075233  0.31964904  1.0
  Ti  Ti348  1  0.28489423  0.07741899  0.31964904  1.0
  Ti  Ti349  1  0.28489423  0.24408566  0.31964904  1.0
  Ti  Ti350  1  0.28489423  0.41075233  0.31964904  1.0
  Ti  Ti351  1  0.28489423  0.57741899  0.31964904  1.0
  Ti  Ti352  1  0.28489423  0.74408566  0.31964904  1.0
  Ti  Ti353  1  0.28489423  0.91075233  0.31964904  1.0
  Ti  Ti354  1  0.37580332  0.07741899  0.31964904  1.0
  Ti  Ti355  1  0.37580332  0.24408566  0.31964904  1.0
  Ti  Ti356  1  0.37580332  0.41075233  0.31964904  1.0
  Ti  Ti357  1  0.37580332  0.57741899  0.31964904  1.0
  Ti  Ti358  1  0.37580332  0.74408566  0.31964904  1.0
  Ti  Ti359  1  0.37580332  0.91075233  0.31964904  1.0
  Ti  Ti360  1  0.46671241  0.07741899  0.31964904  1.0
  Ti  Ti361  1  0.46671241  0.24408566  0.31964904  1.0
  Ti  Ti362  1  0.46671241  0.41075233  0.31964904  1.0
  Ti  Ti363  1  0.46671241  0.57741899  0.31964904  1.0
  Ti  Ti364  1  0.46671241  0.74408566  0.31964904  1.0
  Ti  Ti365  1  0.46671241  0.91075233  0.31964904  1.0
  Ti  Ti366  1  0.55762150  0.07741899  0.31964904  1.0
  Ti  Ti367  1  0.55762150  0.24408566  0.31964904  1.0
  Ti  Ti368  1  0.55762150  0.41075233  0.31964904  1.0
  Ti  Ti369  1  0.55762150  0.57741899  0.31964904  1.0
  Ti  Ti370  1  0.55762150  0.74408566  0.31964904  1.0
  Ti  Ti371  1  0.55762150  0.91075233  0.31964904  1.0
  Ti  Ti372  1  0.64853059  0.07741899  0.31964904  1.0
  Ti  Ti373  1  0.64853059  0.24408566  0.31964904  1.0
  Ti  Ti374  1  0.64853059  0.41075233  0.31964904  1.0
  Ti  Ti375  1  0.64853059  0.57741899  0.31964904  1.0
  Ti  Ti376  1  0.64853059  0.74408566  0.31964904  1.0
  Ti  Ti377  1  0.64853059  0.91075233  0.31964904  1.0
  Ti  Ti378  1  0.73943968  0.07741899  0.31964904  1.0
  Ti  Ti379  1  0.73943968  0.24408566  0.31964904  1.0
  Ti  Ti380  1  0.73943968  0.41075233  0.31964904  1.0
  Ti  Ti381  1  0.73943968  0.57741899  0.31964904  1.0
  Ti  Ti382  1  0.73943968  0.74408566  0.31964904  1.0
  Ti  Ti383  1  0.73943968  0.91075233  0.31964904  1.0
  Ti  Ti384  1  0.83034877  0.07741899  0.31964904  1.0
  Ti  Ti385  1  0.83034877  0.24408566  0.31964904  1.0
  Ti  Ti386  1  0.83034877  0.41075233  0.31964904  1.0
  Ti  Ti387  1  0.83034877  0.57741899  0.31964904  1.0
  Ti  Ti388  1  0.83034877  0.74408566  0.31964904  1.0
  Ti  Ti389  1  0.83034877  0.91075233  0.31964904  1.0
  Ti  Ti390  1  0.92125786  0.07741899  0.31964904  1.0
  Ti  Ti391  1  0.92125786  0.24408566  0.31964904  1.0
  Ti  Ti392  1  0.92125786  0.41075233  0.31964904  1.0
  Ti  Ti393  1  0.92125786  0.57741899  0.31964904  1.0
  Ti  Ti394  1  0.92125786  0.74408566  0.31964904  1.0
  Ti  Ti395  1  0.92125786  0.91075233  0.31964904  1.0
  Ti  Ti396  1  0.04517765  0.14969782  0.29976948  1.0
  Ti  Ti397  1  0.04517765  0.31636449  0.29976948  1.0
  Ti  Ti398  1  0.04517765  0.48303116  0.29976948  1.0
  Ti  Ti399  1  0.04517765  0.64969782  0.29976948  1.0
  Ti  Ti400  1  0.04517765  0.81636449  0.29976948  1.0
  Ti  Ti401  1  0.04517765  0.98303116  0.29976948  1.0
  Ti  Ti402  1  0.13608674  0.14969782  0.29976948  1.0
  Ti  Ti403  1  0.13608674  0.31636449  0.29976948  1.0
  Ti  Ti404  1  0.13608674  0.48303116  0.29976948  1.0
  Ti  Ti405  1  0.13608674  0.64969782  0.29976948  1.0
  Ti  Ti406  1  0.13608674  0.81636449  0.29976948  1.0
  Ti  Ti407  1  0.13608674  0.98303116  0.29976948  1.0
  Ti  Ti408  1  0.22699583  0.14969782  0.29976948  1.0
  Ti  Ti409  1  0.22699583  0.31636449  0.29976948  1.0
  Ti  Ti410  1  0.22699583  0.48303116  0.29976948  1.0
  Ti  Ti411  1  0.22699583  0.64969782  0.29976948  1.0
  Ti  Ti412  1  0.22699583  0.81636449  0.29976948  1.0
  Ti  Ti413  1  0.22699583  0.98303116  0.29976948  1.0
  Ti  Ti414  1  0.31790493  0.14969782  0.29976948  1.0
  Ti  Ti415  1  0.31790493  0.31636449  0.29976948  1.0
  Ti  Ti416  1  0.31790493  0.48303116  0.29976948  1.0
  Ti  Ti417  1  0.31790493  0.64969782  0.29976948  1.0
  Ti  Ti418  1  0.31790493  0.81636449  0.29976948  1.0
  Ti  Ti419  1  0.31790493  0.98303116  0.29976948  1.0
  Ti  Ti420  1  0.40881402  0.14969782  0.29976948  1.0
  Ti  Ti421  1  0.40881402  0.31636449  0.29976948  1.0
  Ti  Ti422  1  0.40881402  0.48303116  0.29976948  1.0
  Ti  Ti423  1  0.40881402  0.64969782  0.29976948  1.0
  Ti  Ti424  1  0.40881402  0.81636449  0.29976948  1.0
  Ti  Ti425  1  0.40881402  0.98303116  0.29976948  1.0
  Ti  Ti426  1  0.49972311  0.14969782  0.29976948  1.0
  Ti  Ti427  1  0.49972311  0.31636449  0.29976948  1.0
  Ti  Ti428  1  0.49972311  0.48303116  0.29976948  1.0
  Ti  Ti429  1  0.49972311  0.64969782  0.29976948  1.0
  Ti  Ti430  1  0.49972311  0.81636449  0.29976948  1.0
  Ti  Ti431  1  0.49972311  0.98303116  0.29976948  1.0
  Ti  Ti432  1  0.59063220  0.14969782  0.29976948  1.0
  Ti  Ti433  1  0.59063220  0.31636449  0.29976948  1.0
  Ti  Ti434  1  0.59063220  0.48303116  0.29976948  1.0
  Ti  Ti435  1  0.59063220  0.64969782  0.29976948  1.0
  Ti  Ti436  1  0.59063220  0.81636449  0.29976948  1.0
  Ti  Ti437  1  0.59063220  0.98303116  0.29976948  1.0
  Ti  Ti438  1  0.68154129  0.14969782  0.29976948  1.0
  Ti  Ti439  1  0.68154129  0.31636449  0.29976948  1.0
  Ti  Ti440  1  0.68154129  0.48303116  0.29976948  1.0
  Ti  Ti441  1  0.68154129  0.64969782  0.29976948  1.0
  Ti  Ti442  1  0.68154129  0.81636449  0.29976948  1.0
  Ti  Ti443  1  0.68154129  0.98303116  0.29976948  1.0
  Ti  Ti444  1  0.77245038  0.14969782  0.29976948  1.0
  Ti  Ti445  1  0.77245038  0.31636449  0.29976948  1.0
  Ti  Ti446  1  0.77245038  0.48303116  0.29976948  1.0
  Ti  Ti447  1  0.77245038  0.64969782  0.29976948  1.0
  Ti  Ti448  1  0.77245038  0.81636449  0.29976948  1.0
  Ti  Ti449  1  0.77245038  0.98303116  0.29976948  1.0
  Ti  Ti450  1  0.86335947  0.14969782  0.29976948  1.0
  Ti  Ti451  1  0.86335947  0.31636449  0.29976948  1.0
  Ti  Ti452  1  0.86335947  0.48303116  0.29976948  1.0
  Ti  Ti453  1  0.86335947  0.64969782  0.29976948  1.0
  Ti  Ti454  1  0.86335947  0.81636449  0.29976948  1.0
  Ti  Ti455  1  0.86335947  0.98303116  0.29976948  1.0
  Ti  Ti456  1  0.95426856  0.14969782  0.29976948  1.0
  Ti  Ti457  1  0.95426856  0.31636449  0.29976948  1.0
  Ti  Ti458  1  0.95426856  0.48303116  0.29976948  1.0
  Ti  Ti459  1  0.95426856  0.64969782  0.29976948  1.0
  Ti  Ti460  1  0.95426856  0.81636449  0.29976948  1.0
  Ti  Ti461  1  0.95426856  0.98303116  0.29976948  1.0
  Ti  Ti462  1  0.09063220  0.16160258  0.22834091  1.0
  Ti  Ti463  1  0.09063220  0.32826925  0.22834091  1.0
  Ti  Ti464  1  0.09063220  0.49493592  0.22834091  1.0
  Ti  Ti465  1  0.09063220  0.66160258  0.22834091  1.0
  Ti  Ti466  1  0.09063220  0.82826925  0.22834091  1.0
  Ti  Ti467  1  0.09063220  0.99493592  0.22834091  1.0
  Ti  Ti468  1  0.18154129  0.16160258  0.22834091  1.0
  Ti  Ti469  1  0.18154129  0.32826925  0.22834091  1.0
  Ti  Ti470  1  0.18154129  0.49493592  0.22834091  1.0
  Ti  Ti471  1  0.18154129  0.66160258  0.22834091  1.0
  Ti  Ti472  1  0.18154129  0.82826925  0.22834091  1.0
  Ti  Ti473  1  0.18154129  0.99493592  0.22834091  1.0
  Ti  Ti474  1  0.27245038  0.16160258  0.22834091  1.0
  Ti  Ti475  1  0.27245038  0.32826925  0.22834091  1.0
  Ti  Ti476  1  0.27245038  0.49493592  0.22834091  1.0
  Ti  Ti477  1  0.27245038  0.66160258  0.22834091  1.0
  Ti  Ti478  1  0.27245038  0.82826925  0.22834091  1.0
  Ti  Ti479  1  0.27245038  0.99493592  0.22834091  1.0
  Ti  Ti480  1  0.36335947  0.16160258  0.22834091  1.0
  Ti  Ti481  1  0.36335947  0.32826925  0.22834091  1.0
  Ti  Ti482  1  0.36335947  0.49493592  0.22834091  1.0
  Ti  Ti483  1  0.36335947  0.66160258  0.22834091  1.0
  Ti  Ti484  1  0.36335947  0.82826925  0.22834091  1.0
  Ti  Ti485  1  0.36335947  0.99493592  0.22834091  1.0
  Ti  Ti486  1  0.45426856  0.16160258  0.22834091  1.0
  Ti  Ti487  1  0.45426856  0.32826925  0.22834091  1.0
  Ti  Ti488  1  0.45426856  0.49493592  0.22834091  1.0
  Ti  Ti489  1  0.45426856  0.66160258  0.22834091  1.0
  Ti  Ti490  1  0.45426856  0.82826925  0.22834091  1.0
  Ti  Ti491  1  0.45426856  0.99493592  0.22834091  1.0
  Ti  Ti492  1  0.54517765  0.16160258  0.22834091  1.0
  Ti  Ti493  1  0.54517765  0.32826925  0.22834091  1.0
  Ti  Ti494  1  0.54517765  0.49493592  0.22834091  1.0
  Ti  Ti495  1  0.54517765  0.66160258  0.22834091  1.0
  Ti  Ti496  1  0.54517765  0.82826925  0.22834091  1.0
  Ti  Ti497  1  0.54517765  0.99493592  0.22834091  1.0
  Ti  Ti498  1  0.63608674  0.16160258  0.22834091  1.0
  Ti  Ti499  1  0.63608674  0.32826925  0.22834091  1.0
  Ti  Ti500  1  0.63608674  0.49493592  0.22834091  1.0
  Ti  Ti501  1  0.63608674  0.66160258  0.22834091  1.0
  Ti  Ti502  1  0.63608674  0.82826925  0.22834091  1.0
  Ti  Ti503  1  0.63608674  0.99493592  0.22834091  1.0
  Ti  Ti504  1  0.72699584  0.16160258  0.22834091  1.0
  Ti  Ti505  1  0.72699583  0.32826925  0.22834091  1.0
  Ti  Ti506  1  0.72699583  0.49493592  0.22834091  1.0
  Ti  Ti507  1  0.72699584  0.66160258  0.22834091  1.0
  Ti  Ti508  1  0.72699584  0.82826925  0.22834091  1.0
  Ti  Ti509  1  0.72699583  0.99493592  0.22834091  1.0
  Ti  Ti510  1  0.81790493  0.16160258  0.22834091  1.0
  Ti  Ti511  1  0.81790493  0.32826925  0.22834091  1.0
  Ti  Ti512  1  0.81790493  0.49493592  0.22834091  1.0
  Ti  Ti513  1  0.81790493  0.66160258  0.22834091  1.0
  Ti  Ti514  1  0.81790493  0.82826925  0.22834091  1.0
  Ti  Ti515  1  0.81790493  0.99493592  0.22834091  1.0
  Ti  Ti516  1  0.90881402  0.16160258  0.22834091  1.0
  Ti  Ti517  1  0.90881402  0.32826925  0.22834091  1.0
  Ti  Ti518  1  0.90881402  0.49493592  0.22834091  1.0
  Ti  Ti519  1  0.90881402  0.66160258  0.22834091  1.0
  Ti  Ti520  1  0.90881402  0.82826925  0.22834091  1.0
  Ti  Ti521  1  0.90881402  0.99493592  0.22834091  1.0
  Ti  Ti522  1  0.99972311  0.16160258  0.22834091  1.0
  Ti  Ti523  1  0.99972311  0.32826925  0.22834091  1.0
  Ti  Ti524  1  0.99972311  0.49493592  0.22834091  1.0
  Ti  Ti525  1  0.99972311  0.66160258  0.22834091  1.0
  Ti  Ti526  1  0.99972311  0.82826925  0.22834091  1.0
  Ti  Ti527  1  0.99972311  0.99493592  0.22834091  1.0
  Ti  Ti528  1  0.02460185  0.01364560  0.26635918  1.0
  Ti  Ti529  1  0.02460185  0.18031227  0.26635918  1.0
  Ti  Ti530  1  0.02460185  0.34697894  0.26635918  1.0
  Ti  Ti531  1  0.02460185  0.51364560  0.26635918  1.0
  Ti  Ti532  1  0.02460185  0.68031227  0.26635918  1.0
  Ti  Ti533  1  0.02460185  0.84697894  0.26635918  1.0
  Ti  Ti534  1  0.11551094  0.01364560  0.26635918  1.0
  Ti  Ti535  1  0.11551094  0.18031227  0.26635918  1.0
  Ti  Ti536  1  0.11551094  0.34697894  0.26635918  1.0
  Ti  Ti537  1  0.11551094  0.51364560  0.26635918  1.0
  Ti  Ti538  1  0.11551094  0.68031227  0.26635918  1.0
  Ti  Ti539  1  0.11551094  0.84697894  0.26635918  1.0
  Ti  Ti540  1  0.20642003  0.01364560  0.26635918  1.0
  Ti  Ti541  1  0.20642003  0.18031227  0.26635918  1.0
  Ti  Ti542  1  0.20642003  0.34697894  0.26635918  1.0
  Ti  Ti543  1  0.20642003  0.51364560  0.26635918  1.0
  Ti  Ti544  1  0.20642003  0.68031227  0.26635918  1.0
  Ti  Ti545  1  0.20642003  0.84697894  0.26635918  1.0
  Ti  Ti546  1  0.29732912  0.01364560  0.26635918  1.0
  Ti  Ti547  1  0.29732912  0.18031227  0.26635918  1.0
  Ti  Ti548  1  0.29732912  0.34697894  0.26635918  1.0
  Ti  Ti549  1  0.29732912  0.51364560  0.26635918  1.0
  Ti  Ti550  1  0.29732912  0.68031227  0.26635918  1.0
  Ti  Ti551  1  0.29732912  0.84697894  0.26635918  1.0
  Ti  Ti552  1  0.38823821  0.01364560  0.26635918  1.0
  Ti  Ti553  1  0.38823821  0.18031227  0.26635918  1.0
  Ti  Ti554  1  0.38823821  0.34697894  0.26635918  1.0
  Ti  Ti555  1  0.38823821  0.51364560  0.26635918  1.0
  Ti  Ti556  1  0.38823821  0.68031227  0.26635918  1.0
  Ti  Ti557  1  0.38823821  0.84697894  0.26635918  1.0
  Ti  Ti558  1  0.47914730  0.01364560  0.26635918  1.0
  Ti  Ti559  1  0.47914730  0.18031227  0.26635918  1.0
  Ti  Ti560  1  0.47914730  0.34697894  0.26635918  1.0
  Ti  Ti561  1  0.47914730  0.51364560  0.26635918  1.0
  Ti  Ti562  1  0.47914730  0.68031227  0.26635918  1.0
  Ti  Ti563  1  0.47914730  0.84697894  0.26635918  1.0
  Ti  Ti564  1  0.57005639  0.01364560  0.26635918  1.0
  Ti  Ti565  1  0.57005639  0.18031227  0.26635918  1.0
  Ti  Ti566  1  0.57005639  0.34697894  0.26635918  1.0
  Ti  Ti567  1  0.57005639  0.51364560  0.26635918  1.0
  Ti  Ti568  1  0.57005639  0.68031227  0.26635918  1.0
  Ti  Ti569  1  0.57005639  0.84697894  0.26635918  1.0
  Ti  Ti570  1  0.66096549  0.01364560  0.26635918  1.0
  Ti  Ti571  1  0.66096549  0.18031227  0.26635918  1.0
  Ti  Ti572  1  0.66096549  0.34697894  0.26635918  1.0
  Ti  Ti573  1  0.66096549  0.51364560  0.26635918  1.0
  Ti  Ti574  1  0.66096549  0.68031227  0.26635918  1.0
  Ti  Ti575  1  0.66096549  0.84697894  0.26635918  1.0
  Ti  Ti576  1  0.75187458  0.01364560  0.26635918  1.0
  Ti  Ti577  1  0.75187458  0.18031227  0.26635918  1.0
  Ti  Ti578  1  0.75187458  0.34697894  0.26635918  1.0
  Ti  Ti579  1  0.75187458  0.51364560  0.26635918  1.0
  Ti  Ti580  1  0.75187458  0.68031227  0.26635918  1.0
  Ti  Ti581  1  0.75187458  0.84697894  0.26635918  1.0
  Ti  Ti582  1  0.84278367  0.01364560  0.26635918  1.0
  Ti  Ti583  1  0.84278367  0.18031227  0.26635918  1.0
  Ti  Ti584  1  0.84278367  0.34697894  0.26635918  1.0
  Ti  Ti585  1  0.84278367  0.51364560  0.26635918  1.0
  Ti  Ti586  1  0.84278367  0.68031227  0.26635918  1.0
  Ti  Ti587  1  0.84278367  0.84697894  0.26635918  1.0
  Ti  Ti588  1  0.93369276  0.01364560  0.26635918  1.0
  Ti  Ti589  1  0.93369276  0.18031227  0.26635918  1.0
  Ti  Ti590  1  0.93369276  0.34697894  0.26635918  1.0
  Ti  Ti591  1  0.93369276  0.51364560  0.26635918  1.0
  Ti  Ti592  1  0.93369276  0.68031227  0.26635918  1.0
  Ti  Ti593  1  0.93369276  0.84697894  0.26635918  1.0
  Ti  Ti594  1  0.07005639  0.00174084  0.33778775  1.0
  Ti  Ti595  1  0.07005639  0.16840751  0.33778775  1.0
  Ti  Ti596  1  0.07005639  0.33507417  0.33778775  1.0
  Ti  Ti597  1  0.07005639  0.50174084  0.33778775  1.0
  Ti  Ti598  1  0.07005639  0.66840751  0.33778775  1.0
  Ti  Ti599  1  0.07005639  0.83507417  0.33778775  1.0
  Ti  Ti600  1  0.16096549  0.00174084  0.33778775  1.0
  Ti  Ti601  1  0.16096549  0.16840751  0.33778775  1.0
  Ti  Ti602  1  0.16096549  0.33507417  0.33778775  1.0
  Ti  Ti603  1  0.16096549  0.50174084  0.33778775  1.0
  Ti  Ti604  1  0.16096549  0.66840751  0.33778775  1.0
  Ti  Ti605  1  0.16096549  0.83507417  0.33778775  1.0
  Ti  Ti606  1  0.25187458  0.00174084  0.33778775  1.0
  Ti  Ti607  1  0.25187458  0.16840751  0.33778775  1.0
  Ti  Ti608  1  0.25187458  0.33507417  0.33778775  1.0
  Ti  Ti609  1  0.25187458  0.50174084  0.33778775  1.0
  Ti  Ti610  1  0.25187458  0.66840751  0.33778775  1.0
  Ti  Ti611  1  0.25187458  0.83507417  0.33778775  1.0
  Ti  Ti612  1  0.34278367  0.00174084  0.33778775  1.0
  Ti  Ti613  1  0.34278367  0.16840751  0.33778775  1.0
  Ti  Ti614  1  0.34278367  0.33507417  0.33778775  1.0
  Ti  Ti615  1  0.34278367  0.50174084  0.33778775  1.0
  Ti  Ti616  1  0.34278367  0.66840751  0.33778775  1.0
  Ti  Ti617  1  0.34278367  0.83507417  0.33778775  1.0
  Ti  Ti618  1  0.43369276  0.00174084  0.33778775  1.0
  Ti  Ti619  1  0.43369276  0.16840751  0.33778775  1.0
  Ti  Ti620  1  0.43369276  0.33507417  0.33778775  1.0
  Ti  Ti621  1  0.43369276  0.50174084  0.33778775  1.0
  Ti  Ti622  1  0.43369276  0.66840751  0.33778775  1.0
  Ti  Ti623  1  0.43369276  0.83507417  0.33778775  1.0
  Ti  Ti624  1  0.52460185  0.00174084  0.33778775  1.0
  Ti  Ti625  1  0.52460185  0.16840751  0.33778775  1.0
  Ti  Ti626  1  0.52460185  0.33507417  0.33778775  1.0
  Ti  Ti627  1  0.52460185  0.50174084  0.33778775  1.0
  Ti  Ti628  1  0.52460185  0.66840751  0.33778775  1.0
  Ti  Ti629  1  0.52460185  0.83507417  0.33778775  1.0
  Ti  Ti630  1  0.61551094  0.00174084  0.33778775  1.0
  Ti  Ti631  1  0.61551094  0.16840751  0.33778775  1.0
  Ti  Ti632  1  0.61551094  0.33507417  0.33778775  1.0
  Ti  Ti633  1  0.61551094  0.50174084  0.33778775  1.0
  Ti  Ti634  1  0.61551094  0.66840751  0.33778775  1.0
  Ti  Ti635  1  0.61551094  0.83507417  0.33778775  1.0
  Ti  Ti636  1  0.70642003  0.00174084  0.33778775  1.0
  Ti  Ti637  1  0.70642003  0.16840751  0.33778775  1.0
  Ti  Ti638  1  0.70642003  0.33507417  0.33778775  1.0
  Ti  Ti639  1  0.70642003  0.50174084  0.33778775  1.0
  Ti  Ti640  1  0.70642003  0.66840751  0.33778775  1.0
  Ti  Ti641  1  0.70642003  0.83507417  0.33778775  1.0
  Ti  Ti642  1  0.79732912  0.00174084  0.33778775  1.0
  Ti  Ti643  1  0.79732912  0.16840751  0.33778775  1.0
  Ti  Ti644  1  0.79732912  0.33507417  0.33778775  1.0
  Ti  Ti645  1  0.79732912  0.50174084  0.33778775  1.0
  Ti  Ti646  1  0.79732912  0.66840751  0.33778775  1.0
  Ti  Ti647  1  0.79732912  0.83507417  0.33778775  1.0
  Ti  Ti648  1  0.88823821  0.00174084  0.33778775  1.0
  Ti  Ti649  1  0.88823821  0.16840751  0.33778775  1.0
  Ti  Ti650  1  0.88823821  0.33507417  0.33778775  1.0
  Ti  Ti651  1  0.88823821  0.50174084  0.33778775  1.0
  Ti  Ti652  1  0.88823821  0.66840751  0.33778775  1.0
  Ti  Ti653  1  0.88823821  0.83507417  0.33778775  1.0
  Ti  Ti654  1  0.97914730  0.00174084  0.33778775  1.0
  Ti  Ti655  1  0.97914730  0.16840751  0.33778775  1.0
  Ti  Ti656  1  0.97914730  0.33507417  0.33778775  1.0
  Ti  Ti657  1  0.97914730  0.50174084  0.33778775  1.0
  Ti  Ti658  1  0.97914730  0.66840751  0.33778775  1.0
  Ti  Ti659  1  0.97914730  0.83507417  0.33778775  1.0
  Ti  Ti660  1  0.03267081  0.06390062  0.27619223  1.0
  Ti  Ti661  1  0.03267081  0.23056728  0.27619223  1.0
  Ti  Ti662  1  0.03267081  0.39723395  0.27619223  1.0
  Ti  Ti663  1  0.03267081  0.56390062  0.27619223  1.0
  Ti  Ti664  1  0.03267081  0.73056728  0.27619223  1.0
  Ti  Ti665  1  0.03267081  0.89723395  0.27619223  1.0
  Ti  Ti666  1  0.12357990  0.06390062  0.27619223  1.0
  Ti  Ti667  1  0.12357990  0.23056728  0.27619223  1.0
  Ti  Ti668  1  0.12357990  0.39723395  0.27619223  1.0
  Ti  Ti669  1  0.12357990  0.56390062  0.27619223  1.0
  Ti  Ti670  1  0.12357990  0.73056728  0.27619223  1.0
  Ti  Ti671  1  0.12357990  0.89723395  0.27619223  1.0
  Ti  Ti672  1  0.21448899  0.06390062  0.27619223  1.0
  Ti  Ti673  1  0.21448899  0.23056728  0.27619223  1.0
  Ti  Ti674  1  0.21448899  0.39723395  0.27619223  1.0
  Ti  Ti675  1  0.21448899  0.56390062  0.27619223  1.0
  Ti  Ti676  1  0.21448899  0.73056728  0.27619223  1.0
  Ti  Ti677  1  0.21448899  0.89723395  0.27619223  1.0
  Ti  Ti678  1  0.30539808  0.06390062  0.27619223  1.0
  Ti  Ti679  1  0.30539808  0.23056728  0.27619223  1.0
  Ti  Ti680  1  0.30539808  0.39723395  0.27619223  1.0
  Ti  Ti681  1  0.30539808  0.56390062  0.27619223  1.0
  Ti  Ti682  1  0.30539808  0.73056728  0.27619223  1.0
  Ti  Ti683  1  0.30539808  0.89723395  0.27619223  1.0
  Ti  Ti684  1  0.39630717  0.06390062  0.27619223  1.0
  Ti  Ti685  1  0.39630717  0.23056728  0.27619223  1.0
  Ti  Ti686  1  0.39630717  0.39723395  0.27619223  1.0
  Ti  Ti687  1  0.39630717  0.56390062  0.27619223  1.0
  Ti  Ti688  1  0.39630717  0.73056728  0.27619223  1.0
  Ti  Ti689  1  0.39630717  0.89723395  0.27619223  1.0
  Ti  Ti690  1  0.48721626  0.06390062  0.27619223  1.0
  Ti  Ti691  1  0.48721626  0.23056728  0.27619223  1.0
  Ti  Ti692  1  0.48721626  0.39723395  0.27619223  1.0
  Ti  Ti693  1  0.48721626  0.56390062  0.27619223  1.0
  Ti  Ti694  1  0.48721626  0.73056728  0.27619223  1.0
  Ti  Ti695  1  0.48721626  0.89723395  0.27619223  1.0
  Ti  Ti696  1  0.57812535  0.06390062  0.27619223  1.0
  Ti  Ti697  1  0.57812535  0.23056728  0.27619223  1.0
  Ti  Ti698  1  0.57812535  0.39723395  0.27619223  1.0
  Ti  Ti699  1  0.57812535  0.56390062  0.27619223  1.0
  Ti  Ti700  1  0.57812535  0.73056728  0.27619223  1.0
  Ti  Ti701  1  0.57812535  0.89723395  0.27619223  1.0
  Ti  Ti702  1  0.66903444  0.06390062  0.27619223  1.0
  Ti  Ti703  1  0.66903444  0.23056728  0.27619223  1.0
  Ti  Ti704  1  0.66903444  0.39723395  0.27619223  1.0
  Ti  Ti705  1  0.66903444  0.56390062  0.27619223  1.0
  Ti  Ti706  1  0.66903444  0.73056728  0.27619223  1.0
  Ti  Ti707  1  0.66903444  0.89723395  0.27619223  1.0
  Ti  Ti708  1  0.75994354  0.06390062  0.27619223  1.0
  Ti  Ti709  1  0.75994354  0.23056728  0.27619223  1.0
  Ti  Ti710  1  0.75994354  0.39723395  0.27619223  1.0
  Ti  Ti711  1  0.75994354  0.56390062  0.27619223  1.0
  Ti  Ti712  1  0.75994354  0.73056728  0.27619223  1.0
  Ti  Ti713  1  0.75994354  0.89723395  0.27619223  1.0
  Ti  Ti714  1  0.85085263  0.06390062  0.27619223  1.0
  Ti  Ti715  1  0.85085263  0.23056728  0.27619223  1.0
  Ti  Ti716  1  0.85085263  0.39723395  0.27619223  1.0
  Ti  Ti717  1  0.85085263  0.56390062  0.27619223  1.0
  Ti  Ti718  1  0.85085263  0.73056728  0.27619223  1.0
  Ti  Ti719  1  0.85085263  0.89723395  0.27619223  1.0
  Ti  Ti720  1  0.94176172  0.06390062  0.27619223  1.0
  Ti  Ti721  1  0.94176172  0.23056728  0.27619223  1.0
  Ti  Ti722  1  0.94176172  0.39723395  0.27619223  1.0
  Ti  Ti723  1  0.94176172  0.56390062  0.27619223  1.0
  Ti  Ti724  1  0.94176172  0.73056728  0.27619223  1.0
  Ti  Ti725  1  0.94176172  0.89723395  0.27619223  1.0
  Ti  Ti726  1  0.07812535  0.05199585  0.34762080  1.0
  Ti  Ti727  1  0.07812535  0.21866252  0.34762080  1.0
  Ti  Ti728  1  0.07812535  0.38532919  0.34762080  1.0
  Ti  Ti729  1  0.07812535  0.55199585  0.34762080  1.0
  Ti  Ti730  1  0.07812535  0.71866252  0.34762080  1.0
  Ti  Ti731  1  0.07812535  0.88532919  0.34762080  1.0
  Ti  Ti732  1  0.16903444  0.05199585  0.34762080  1.0
  Ti  Ti733  1  0.16903444  0.21866252  0.34762080  1.0
  Ti  Ti734  1  0.16903444  0.38532919  0.34762080  1.0
  Ti  Ti735  1  0.16903444  0.55199585  0.34762080  1.0
  Ti  Ti736  1  0.16903444  0.71866252  0.34762080  1.0
  Ti  Ti737  1  0.16903444  0.88532919  0.34762080  1.0
  Ti  Ti738  1  0.25994354  0.05199585  0.34762080  1.0
  Ti  Ti739  1  0.25994354  0.21866252  0.34762080  1.0
  Ti  Ti740  1  0.25994354  0.38532919  0.34762080  1.0
  Ti  Ti741  1  0.25994354  0.55199585  0.34762080  1.0
  Ti  Ti742  1  0.25994354  0.71866252  0.34762080  1.0
  Ti  Ti743  1  0.25994354  0.88532919  0.34762080  1.0
  Ti  Ti744  1  0.35085263  0.05199585  0.34762080  1.0
  Ti  Ti745  1  0.35085263  0.21866252  0.34762080  1.0
  Ti  Ti746  1  0.35085263  0.38532919  0.34762080  1.0
  Ti  Ti747  1  0.35085263  0.55199585  0.34762080  1.0
  Ti  Ti748  1  0.35085263  0.71866252  0.34762080  1.0
  Ti  Ti749  1  0.35085263  0.88532919  0.34762080  1.0
  Ti  Ti750  1  0.44176172  0.05199585  0.34762080  1.0
  Ti  Ti751  1  0.44176172  0.21866252  0.34762080  1.0
  Ti  Ti752  1  0.44176172  0.38532919  0.34762080  1.0
  Ti  Ti753  1  0.44176172  0.55199585  0.34762080  1.0
  Ti  Ti754  1  0.44176172  0.71866252  0.34762080  1.0
  Ti  Ti755  1  0.44176172  0.88532919  0.34762080  1.0
  Ti  Ti756  1  0.53267081  0.05199585  0.34762080  1.0
  Ti  Ti757  1  0.53267081  0.21866252  0.34762080  1.0
  Ti  Ti758  1  0.53267081  0.38532919  0.34762080  1.0
  Ti  Ti759  1  0.53267081  0.55199585  0.34762080  1.0
  Ti  Ti760  1  0.53267081  0.71866252  0.34762080  1.0
  Ti  Ti761  1  0.53267081  0.88532919  0.34762080  1.0
  Ti  Ti762  1  0.62357990  0.05199585  0.34762080  1.0
  Ti  Ti763  1  0.62357990  0.21866252  0.34762080  1.0
  Ti  Ti764  1  0.62357990  0.38532919  0.34762080  1.0
  Ti  Ti765  1  0.62357990  0.55199585  0.34762080  1.0
  Ti  Ti766  1  0.62357990  0.71866252  0.34762080  1.0
  Ti  Ti767  1  0.62357990  0.88532919  0.34762080  1.0
  Ti  Ti768  1  0.71448899  0.05199585  0.34762080  1.0
  Ti  Ti769  1  0.71448899  0.21866252  0.34762080  1.0
  Ti  Ti770  1  0.71448899  0.38532919  0.34762080  1.0
  Ti  Ti771  1  0.71448899  0.55199585  0.34762080  1.0
  Ti  Ti772  1  0.71448899  0.71866252  0.34762080  1.0
  Ti  Ti773  1  0.71448899  0.88532919  0.34762080  1.0
  Ti  Ti774  1  0.80539808  0.05199585  0.34762080  1.0
  Ti  Ti775  1  0.80539808  0.21866252  0.34762080  1.0
  Ti  Ti776  1  0.80539808  0.38532919  0.34762080  1.0
  Ti  Ti777  1  0.80539808  0.55199585  0.34762080  1.0
  Ti  Ti778  1  0.80539808  0.71866252  0.34762080  1.0
  Ti  Ti779  1  0.80539808  0.88532919  0.34762080  1.0
  Ti  Ti780  1  0.89630717  0.05199585  0.34762080  1.0
  Ti  Ti781  1  0.89630717  0.21866252  0.34762080  1.0
  Ti  Ti782  1  0.89630717  0.38532919  0.34762080  1.0
  Ti  Ti783  1  0.89630717  0.55199585  0.34762080  1.0
  Ti  Ti784  1  0.89630717  0.71866252  0.34762080  1.0
  Ti  Ti785  1  0.89630717  0.88532919  0.34762080  1.0
  Ti  Ti786  1  0.98721626  0.05199585  0.34762080  1.0
  Ti  Ti787  1  0.98721626  0.21866252  0.34762080  1.0
  Ti  Ti788  1  0.98721626  0.38532919  0.34762080  1.0
  Ti  Ti789  1  0.98721626  0.55199585  0.34762080  1.0
  Ti  Ti790  1  0.98721626  0.71866252  0.34762080  1.0
  Ti  Ti791  1  0.98721626  0.88532919  0.34762080  1.0
  Ti  Ti792  1  0.08439766  0.10682599  0.28798795  1.0
  Ti  Ti793  1  0.08439766  0.27349266  0.28798795  1.0
  Ti  Ti794  1  0.08439766  0.44015933  0.28798795  1.0
  Ti  Ti795  1  0.08439766  0.60682599  0.28798795  1.0
  Ti  Ti796  1  0.08439766  0.77349266  0.28798795  1.0
  Ti  Ti797  1  0.08439766  0.94015933  0.28798795  1.0
  Ti  Ti798  1  0.17530675  0.10682599  0.28798795  1.0
  Ti  Ti799  1  0.17530675  0.27349266  0.28798795  1.0
  Ti  Ti800  1  0.17530675  0.44015933  0.28798795  1.0
  Ti  Ti801  1  0.17530675  0.60682599  0.28798795  1.0
  Ti  Ti802  1  0.17530675  0.77349266  0.28798795  1.0
  Ti  Ti803  1  0.17530675  0.94015933  0.28798795  1.0
  Ti  Ti804  1  0.26621584  0.10682599  0.28798795  1.0
  Ti  Ti805  1  0.26621584  0.27349266  0.28798795  1.0
  Ti  Ti806  1  0.26621584  0.44015933  0.28798795  1.0
  Ti  Ti807  1  0.26621584  0.60682599  0.28798795  1.0
  Ti  Ti808  1  0.26621584  0.77349266  0.28798795  1.0
  Ti  Ti809  1  0.26621584  0.94015933  0.28798795  1.0
  Ti  Ti810  1  0.35712493  0.10682599  0.28798795  1.0
  Ti  Ti811  1  0.35712493  0.27349266  0.28798795  1.0
  Ti  Ti812  1  0.35712493  0.44015933  0.28798795  1.0
  Ti  Ti813  1  0.35712493  0.60682599  0.28798795  1.0
  Ti  Ti814  1  0.35712493  0.77349266  0.28798795  1.0
  Ti  Ti815  1  0.35712493  0.94015933  0.28798795  1.0
  Ti  Ti816  1  0.44803402  0.10682599  0.28798795  1.0
  Ti  Ti817  1  0.44803402  0.27349266  0.28798795  1.0
  Ti  Ti818  1  0.44803402  0.44015933  0.28798795  1.0
  Ti  Ti819  1  0.44803402  0.60682599  0.28798795  1.0
  Ti  Ti820  1  0.44803402  0.77349266  0.28798795  1.0
  Ti  Ti821  1  0.44803402  0.94015933  0.28798795  1.0
  Ti  Ti822  1  0.53894311  0.10682599  0.28798795  1.0
  Ti  Ti823  1  0.53894311  0.27349266  0.28798795  1.0
  Ti  Ti824  1  0.53894311  0.44015933  0.28798795  1.0
  Ti  Ti825  1  0.53894311  0.60682599  0.28798795  1.0
  Ti  Ti826  1  0.53894311  0.77349266  0.28798795  1.0
  Ti  Ti827  1  0.53894311  0.94015933  0.28798795  1.0
  Ti  Ti828  1  0.62985220  0.10682599  0.28798795  1.0
  Ti  Ti829  1  0.62985220  0.27349266  0.28798795  1.0
  Ti  Ti830  1  0.62985220  0.44015933  0.28798795  1.0
  Ti  Ti831  1  0.62985220  0.60682599  0.28798795  1.0
  Ti  Ti832  1  0.62985220  0.77349266  0.28798795  1.0
  Ti  Ti833  1  0.62985220  0.94015933  0.28798795  1.0
  Ti  Ti834  1  0.72076129  0.10682599  0.28798795  1.0
  Ti  Ti835  1  0.72076129  0.27349266  0.28798795  1.0
  Ti  Ti836  1  0.72076129  0.44015933  0.28798795  1.0
  Ti  Ti837  1  0.72076129  0.60682599  0.28798795  1.0
  Ti  Ti838  1  0.72076129  0.77349266  0.28798795  1.0
  Ti  Ti839  1  0.72076129  0.94015933  0.28798795  1.0
  Ti  Ti840  1  0.81167038  0.10682599  0.28798795  1.0
  Ti  Ti841  1  0.81167038  0.27349266  0.28798795  1.0
  Ti  Ti842  1  0.81167038  0.44015933  0.28798795  1.0
  Ti  Ti843  1  0.81167038  0.60682599  0.28798795  1.0
  Ti  Ti844  1  0.81167038  0.77349266  0.28798795  1.0
  Ti  Ti845  1  0.81167038  0.94015933  0.28798795  1.0
  Ti  Ti846  1  0.90257947  0.10682599  0.28798795  1.0
  Ti  Ti847  1  0.90257948  0.27349266  0.28798795  1.0
  Ti  Ti848  1  0.90257948  0.44015933  0.28798795  1.0
  Ti  Ti849  1  0.90257947  0.60682599  0.28798795  1.0
  Ti  Ti850  1  0.90257948  0.77349266  0.28798795  1.0
  Ti  Ti851  1  0.90257948  0.94015933  0.28798795  1.0
  Ti  Ti852  1  0.99348857  0.10682599  0.28798795  1.0
  Ti  Ti853  1  0.99348857  0.27349266  0.28798795  1.0
  Ti  Ti854  1  0.99348857  0.44015933  0.28798795  1.0
  Ti  Ti855  1  0.99348857  0.60682599  0.28798795  1.0
  Ti  Ti856  1  0.99348857  0.77349266  0.28798795  1.0
  Ti  Ti857  1  0.99348857  0.94015933  0.28798795  1.0
  Ti  Ti858  1  0.03894311  0.11873075  0.21655938  1.0
  Ti  Ti859  1  0.03894311  0.28539742  0.21655938  1.0
  Ti  Ti860  1  0.03894311  0.45206409  0.21655938  1.0
  Ti  Ti861  1  0.03894311  0.61873075  0.21655938  1.0
  Ti  Ti862  1  0.03894311  0.78539742  0.21655938  1.0
  Ti  Ti863  1  0.03894311  0.95206409  0.21655938  1.0
  Ti  Ti864  1  0.12985220  0.11873075  0.21655938  1.0
  Ti  Ti865  1  0.12985220  0.28539742  0.21655938  1.0
  Ti  Ti866  1  0.12985220  0.45206409  0.21655938  1.0
  Ti  Ti867  1  0.12985220  0.61873075  0.21655938  1.0
  Ti  Ti868  1  0.12985220  0.78539742  0.21655938  1.0
  Ti  Ti869  1  0.12985220  0.95206409  0.21655938  1.0
  Ti  Ti870  1  0.22076129  0.11873075  0.21655938  1.0
  Ti  Ti871  1  0.22076129  0.28539742  0.21655938  1.0
  Ti  Ti872  1  0.22076129  0.45206409  0.21655938  1.0
  Ti  Ti873  1  0.22076129  0.61873075  0.21655938  1.0
  Ti  Ti874  1  0.22076129  0.78539742  0.21655938  1.0
  Ti  Ti875  1  0.22076129  0.95206409  0.21655938  1.0
  Ti  Ti876  1  0.31167038  0.11873075  0.21655938  1.0
  Ti  Ti877  1  0.31167038  0.28539742  0.21655938  1.0
  Ti  Ti878  1  0.31167038  0.45206409  0.21655938  1.0
  Ti  Ti879  1  0.31167038  0.61873075  0.21655938  1.0
  Ti  Ti880  1  0.31167038  0.78539742  0.21655938  1.0
  Ti  Ti881  1  0.31167038  0.95206409  0.21655938  1.0
  Ti  Ti882  1  0.40257948  0.11873075  0.21655938  1.0
  Ti  Ti883  1  0.40257948  0.28539742  0.21655938  1.0
  Ti  Ti884  1  0.40257948  0.45206409  0.21655938  1.0
  Ti  Ti885  1  0.40257948  0.61873075  0.21655938  1.0
  Ti  Ti886  1  0.40257947  0.78539742  0.21655938  1.0
  Ti  Ti887  1  0.40257948  0.95206409  0.21655938  1.0
  Ti  Ti888  1  0.49348857  0.11873075  0.21655938  1.0
  Ti  Ti889  1  0.49348857  0.28539742  0.21655938  1.0
  Ti  Ti890  1  0.49348857  0.45206409  0.21655938  1.0
  Ti  Ti891  1  0.49348857  0.61873075  0.21655938  1.0
  Ti  Ti892  1  0.49348857  0.78539742  0.21655938  1.0
  Ti  Ti893  1  0.49348857  0.95206409  0.21655938  1.0
  Ti  Ti894  1  0.58439766  0.11873075  0.21655938  1.0
  Ti  Ti895  1  0.58439766  0.28539742  0.21655938  1.0
  Ti  Ti896  1  0.58439766  0.45206409  0.21655938  1.0
  Ti  Ti897  1  0.58439766  0.61873075  0.21655938  1.0
  Ti  Ti898  1  0.58439766  0.78539742  0.21655938  1.0
  Ti  Ti899  1  0.58439766  0.95206409  0.21655938  1.0
  Ti  Ti900  1  0.67530675  0.11873075  0.21655938  1.0
  Ti  Ti901  1  0.67530675  0.28539742  0.21655938  1.0
  Ti  Ti902  1  0.67530675  0.45206409  0.21655938  1.0
  Ti  Ti903  1  0.67530675  0.61873075  0.21655938  1.0
  Ti  Ti904  1  0.67530675  0.78539742  0.21655938  1.0
  Ti  Ti905  1  0.67530675  0.95206409  0.21655938  1.0
  Ti  Ti906  1  0.76621584  0.11873075  0.21655938  1.0
  Ti  Ti907  1  0.76621584  0.28539742  0.21655938  1.0
  Ti  Ti908  1  0.76621584  0.45206409  0.21655938  1.0
  Ti  Ti909  1  0.76621584  0.61873075  0.21655938  1.0
  Ti  Ti910  1  0.76621584  0.78539742  0.21655938  1.0
  Ti  Ti911  1  0.76621584  0.95206409  0.21655938  1.0
  Ti  Ti912  1  0.85712493  0.11873075  0.21655938  1.0
  Ti  Ti913  1  0.85712493  0.28539742  0.21655938  1.0
  Ti  Ti914  1  0.85712493  0.45206409  0.21655938  1.0
  Ti  Ti915  1  0.85712493  0.61873075  0.21655938  1.0
  Ti  Ti916  1  0.85712493  0.78539742  0.21655938  1.0
  Ti  Ti917  1  0.85712493  0.95206409  0.21655938  1.0
  Ti  Ti918  1  0.94803402  0.11873075  0.21655938  1.0
  Ti  Ti919  1  0.94803402  0.28539742  0.21655938  1.0
  Ti  Ti920  1  0.94803402  0.45206409  0.21655938  1.0
  Ti  Ti921  1  0.94803402  0.61873075  0.21655938  1.0
  Ti  Ti922  1  0.94803402  0.78539742  0.21655938  1.0
  Ti  Ti923  1  0.94803402  0.95206409  0.21655938  1.0
  Ti  Ti924  1  0.02688851  0.00374523  0.33957342  1.0
  Ti  Ti925  1  0.02688851  0.17041190  0.33957342  1.0
  Ti  Ti926  1  0.02688851  0.33707856  0.33957342  1.0
  Ti  Ti927  1  0.02688851  0.50374523  0.33957342  1.0
  Ti  Ti928  1  0.02688851  0.67041190  0.33957342  1.0
  Ti  Ti929  1  0.02688851  0.83707856  0.33957342  1.0
  Ti  Ti930  1  0.11779760  0.00374523  0.33957342  1.0
  Ti  Ti931  1  0.11779760  0.17041190  0.33957342  1.0
  Ti  Ti932  1  0.11779760  0.33707856  0.33957342  1.0
  Ti  Ti933  1  0.11779760  0.50374523  0.33957342  1.0
  Ti  Ti934  1  0.11779760  0.67041190  0.33957342  1.0
  Ti  Ti935  1  0.11779760  0.83707856  0.33957342  1.0
  Ti  Ti936  1  0.20870669  0.00374523  0.33957342  1.0
  Ti  Ti937  1  0.20870669  0.17041190  0.33957342  1.0
  Ti  Ti938  1  0.20870669  0.33707856  0.33957342  1.0
  Ti  Ti939  1  0.20870669  0.50374523  0.33957342  1.0
  Ti  Ti940  1  0.20870669  0.67041190  0.33957342  1.0
  Ti  Ti941  1  0.20870669  0.83707856  0.33957342  1.0
  Ti  Ti942  1  0.29961578  0.00374523  0.33957342  1.0
  Ti  Ti943  1  0.29961578  0.17041190  0.33957342  1.0
  Ti  Ti944  1  0.29961578  0.33707856  0.33957342  1.0
  Ti  Ti945  1  0.29961578  0.50374523  0.33957342  1.0
  Ti  Ti946  1  0.29961578  0.67041190  0.33957342  1.0
  Ti  Ti947  1  0.29961578  0.83707856  0.33957342  1.0
  Ti  Ti948  1  0.39052487  0.00374523  0.33957342  1.0
  Ti  Ti949  1  0.39052487  0.17041190  0.33957342  1.0
  Ti  Ti950  1  0.39052487  0.33707856  0.33957342  1.0
  Ti  Ti951  1  0.39052487  0.50374523  0.33957342  1.0
  Ti  Ti952  1  0.39052487  0.67041190  0.33957342  1.0
  Ti  Ti953  1  0.39052487  0.83707856  0.33957342  1.0
  Ti  Ti954  1  0.48143396  0.00374523  0.33957342  1.0
  Ti  Ti955  1  0.48143396  0.17041190  0.33957342  1.0
  Ti  Ti956  1  0.48143396  0.33707856  0.33957342  1.0
  Ti  Ti957  1  0.48143396  0.50374523  0.33957342  1.0
  Ti  Ti958  1  0.48143396  0.67041190  0.33957342  1.0
  Ti  Ti959  1  0.48143396  0.83707856  0.33957342  1.0
  Ti  Ti960  1  0.57234305  0.00374523  0.33957342  1.0
  Ti  Ti961  1  0.57234305  0.17041190  0.33957342  1.0
  Ti  Ti962  1  0.57234305  0.33707856  0.33957342  1.0
  Ti  Ti963  1  0.57234305  0.50374523  0.33957342  1.0
  Ti  Ti964  1  0.57234305  0.67041190  0.33957342  1.0
  Ti  Ti965  1  0.57234305  0.83707856  0.33957342  1.0
  Ti  Ti966  1  0.66325214  0.00374523  0.33957342  1.0
  Ti  Ti967  1  0.66325214  0.17041190  0.33957342  1.0
  Ti  Ti968  1  0.66325214  0.33707856  0.33957342  1.0
  Ti  Ti969  1  0.66325214  0.50374523  0.33957342  1.0
  Ti  Ti970  1  0.66325214  0.67041190  0.33957342  1.0
  Ti  Ti971  1  0.66325214  0.83707856  0.33957342  1.0
  Ti  Ti972  1  0.75416123  0.00374523  0.33957342  1.0
  Ti  Ti973  1  0.75416123  0.17041190  0.33957342  1.0
  Ti  Ti974  1  0.75416123  0.33707856  0.33957342  1.0
  Ti  Ti975  1  0.75416123  0.50374523  0.33957342  1.0
  Ti  Ti976  1  0.75416123  0.67041190  0.33957342  1.0
  Ti  Ti977  1  0.75416123  0.83707856  0.33957342  1.0
  Ti  Ti978  1  0.84507032  0.00374523  0.33957342  1.0
  Ti  Ti979  1  0.84507032  0.17041190  0.33957342  1.0
  Ti  Ti980  1  0.84507032  0.33707856  0.33957342  1.0
  Ti  Ti981  1  0.84507032  0.50374523  0.33957342  1.0
  Ti  Ti982  1  0.84507032  0.67041190  0.33957342  1.0
  Ti  Ti983  1  0.84507032  0.83707856  0.33957342  1.0
  Ti  Ti984  1  0.93597941  0.00374523  0.33957342  1.0
  Ti  Ti985  1  0.93597941  0.17041190  0.33957342  1.0
  Ti  Ti986  1  0.93597941  0.33707856  0.33957342  1.0
  Ti  Ti987  1  0.93597941  0.50374523  0.33957342  1.0
  Ti  Ti988  1  0.93597941  0.67041190  0.33957342  1.0
  Ti  Ti989  1  0.93597941  0.83707856  0.33957342  1.0
  Ti  Ti990  1  0.07234305  0.01564999  0.26814485  1.0
  Ti  Ti991  1  0.07234305  0.18231666  0.26814485  1.0
  Ti  Ti992  1  0.07234305  0.34898332  0.26814485  1.0
  Ti  Ti993  1  0.07234305  0.51564999  0.26814485  1.0
  Ti  Ti994  1  0.07234305  0.68231666  0.26814485  1.0
  Ti  Ti995  1  0.07234305  0.84898332  0.26814485  1.0
  Ti  Ti996  1  0.16325214  0.01564999  0.26814485  1.0
  Ti  Ti997  1  0.16325214  0.18231666  0.26814485  1.0
  Ti  Ti998  1  0.16325214  0.34898332  0.26814485  1.0
  Ti  Ti999  1  0.16325214  0.51564999  0.26814485  1.0
  Ti  Ti1000  1  0.16325214  0.68231666  0.26814485  1.0
  Ti  Ti1001  1  0.16325214  0.84898332  0.26814485  1.0
  Ti  Ti1002  1  0.25416123  0.01564999  0.26814485  1.0
  Ti  Ti1003  1  0.25416123  0.18231666  0.26814485  1.0
  Ti  Ti1004  1  0.25416123  0.34898332  0.26814485  1.0
  Ti  Ti1005  1  0.25416123  0.51564999  0.26814485  1.0
  Ti  Ti1006  1  0.25416123  0.68231666  0.26814485  1.0
  Ti  Ti1007  1  0.25416123  0.84898332  0.26814485  1.0
  Ti  Ti1008  1  0.34507032  0.01564999  0.26814485  1.0
  Ti  Ti1009  1  0.34507032  0.18231666  0.26814485  1.0
  Ti  Ti1010  1  0.34507032  0.34898332  0.26814485  1.0
  Ti  Ti1011  1  0.34507032  0.51564999  0.26814485  1.0
  Ti  Ti1012  1  0.34507032  0.68231666  0.26814485  1.0
  Ti  Ti1013  1  0.34507032  0.84898332  0.26814485  1.0
  Ti  Ti1014  1  0.43597941  0.01564999  0.26814485  1.0
  Ti  Ti1015  1  0.43597941  0.18231666  0.26814485  1.0
  Ti  Ti1016  1  0.43597941  0.34898332  0.26814485  1.0
  Ti  Ti1017  1  0.43597941  0.51564999  0.26814485  1.0
  Ti  Ti1018  1  0.43597941  0.68231666  0.26814485  1.0
  Ti  Ti1019  1  0.43597941  0.84898332  0.26814485  1.0
  Ti  Ti1020  1  0.52688851  0.01564999  0.26814485  1.0
  Ti  Ti1021  1  0.52688851  0.18231666  0.26814485  1.0
  Ti  Ti1022  1  0.52688851  0.34898332  0.26814485  1.0
  Ti  Ti1023  1  0.52688851  0.51564999  0.26814485  1.0
  Ti  Ti1024  1  0.52688851  0.68231666  0.26814485  1.0
  Ti  Ti1025  1  0.52688851  0.84898332  0.26814485  1.0
  Ti  Ti1026  1  0.61779760  0.01564999  0.26814485  1.0
  Ti  Ti1027  1  0.61779760  0.18231666  0.26814485  1.0
  Ti  Ti1028  1  0.61779760  0.34898332  0.26814485  1.0
  Ti  Ti1029  1  0.61779760  0.51564999  0.26814485  1.0
  Ti  Ti1030  1  0.61779760  0.68231666  0.26814485  1.0
  Ti  Ti1031  1  0.61779760  0.84898332  0.26814485  1.0
  Ti  Ti1032  1  0.70870669  0.01564999  0.26814485  1.0
  Ti  Ti1033  1  0.70870669  0.18231666  0.26814485  1.0
  Ti  Ti1034  1  0.70870669  0.34898332  0.26814485  1.0
  Ti  Ti1035  1  0.70870669  0.51564999  0.26814485  1.0
  Ti  Ti1036  1  0.70870669  0.68231666  0.26814485  1.0
  Ti  Ti1037  1  0.70870669  0.84898332  0.26814485  1.0
  Ti  Ti1038  1  0.79961578  0.01564999  0.26814485  1.0
  Ti  Ti1039  1  0.79961578  0.18231666  0.26814485  1.0
  Ti  Ti1040  1  0.79961578  0.34898332  0.26814485  1.0
  Ti  Ti1041  1  0.79961578  0.51564999  0.26814485  1.0
  Ti  Ti1042  1  0.79961578  0.68231666  0.26814485  1.0
  Ti  Ti1043  1  0.79961578  0.84898332  0.26814485  1.0
  Ti  Ti1044  1  0.89052487  0.01564999  0.26814485  1.0
  Ti  Ti1045  1  0.89052487  0.18231666  0.26814485  1.0
  Ti  Ti1046  1  0.89052487  0.34898332  0.26814485  1.0
  Ti  Ti1047  1  0.89052487  0.51564999  0.26814485  1.0
  Ti  Ti1048  1  0.89052487  0.68231666  0.26814485  1.0
  Ti  Ti1049  1  0.89052487  0.84898332  0.26814485  1.0
  Ti  Ti1050  1  0.98143396  0.01564999  0.26814485  1.0
  Ti  Ti1051  1  0.98143396  0.18231666  0.26814485  1.0
  Ti  Ti1052  1  0.98143396  0.34898332  0.26814485  1.0
  Ti  Ti1053  1  0.98143396  0.51564999  0.26814485  1.0
  Ti  Ti1054  1  0.98143396  0.68231666  0.26814485  1.0
  Ti  Ti1055  1  0.98143396  0.84898332  0.26814485  1.0
  Ti  Ti1056  1  0.05966095  0.07724669  0.31947132  1.0
  Ti  Ti1057  1  0.05966095  0.24391336  0.31947132  1.0
  Ti  Ti1058  1  0.05966095  0.41058002  0.31947132  1.0
  Ti  Ti1059  1  0.05966095  0.57724669  0.31947132  1.0
  Ti  Ti1060  1  0.05966095  0.74391336  0.31947132  1.0
  Ti  Ti1061  1  0.05966095  0.91058002  0.31947132  1.0
  Ti  Ti1062  1  0.15057004  0.07724669  0.31947132  1.0
  Ti  Ti1063  1  0.15057004  0.24391336  0.31947132  1.0
  Ti  Ti1064  1  0.15057004  0.41058002  0.31947132  1.0
  Ti  Ti1065  1  0.15057004  0.57724669  0.31947132  1.0
  Ti  Ti1066  1  0.15057004  0.74391336  0.31947132  1.0
  Ti  Ti1067  1  0.15057004  0.91058002  0.31947132  1.0
  Ti  Ti1068  1  0.24147913  0.07724669  0.31947132  1.0
  Ti  Ti1069  1  0.24147913  0.24391336  0.31947132  1.0
  Ti  Ti1070  1  0.24147913  0.41058002  0.31947132  1.0
  Ti  Ti1071  1  0.24147913  0.57724669  0.31947132  1.0
  Ti  Ti1072  1  0.24147913  0.74391336  0.31947132  1.0
  Ti  Ti1073  1  0.24147913  0.91058002  0.31947132  1.0
  Ti  Ti1074  1  0.33238822  0.07724669  0.31947132  1.0
  Ti  Ti1075  1  0.33238822  0.24391336  0.31947132  1.0
  Ti  Ti1076  1  0.33238822  0.41058002  0.31947132  1.0
  Ti  Ti1077  1  0.33238822  0.57724669  0.31947132  1.0
  Ti  Ti1078  1  0.33238822  0.74391336  0.31947132  1.0
  Ti  Ti1079  1  0.33238822  0.91058002  0.31947132  1.0
  Ti  Ti1080  1  0.42329731  0.07724669  0.31947132  1.0
  Ti  Ti1081  1  0.42329731  0.24391336  0.31947132  1.0
  Ti  Ti1082  1  0.42329731  0.41058002  0.31947132  1.0
  Ti  Ti1083  1  0.42329731  0.57724669  0.31947132  1.0
  Ti  Ti1084  1  0.42329731  0.74391336  0.31947132  1.0
  Ti  Ti1085  1  0.42329731  0.91058002  0.31947132  1.0
  Ti  Ti1086  1  0.51420640  0.07724669  0.31947132  1.0
  Ti  Ti1087  1  0.51420640  0.24391336  0.31947132  1.0
  Ti  Ti1088  1  0.51420640  0.41058002  0.31947132  1.0
  Ti  Ti1089  1  0.51420640  0.57724669  0.31947132  1.0
  Ti  Ti1090  1  0.51420640  0.74391336  0.31947132  1.0
  Ti  Ti1091  1  0.51420640  0.91058002  0.31947132  1.0
  Ti  Ti1092  1  0.60511550  0.07724669  0.31947132  1.0
  Ti  Ti1093  1  0.60511550  0.24391336  0.31947132  1.0
  Ti  Ti1094  1  0.60511550  0.41058002  0.31947132  1.0
  Ti  Ti1095  1  0.60511550  0.57724669  0.31947132  1.0
  Ti  Ti1096  1  0.60511550  0.74391336  0.31947132  1.0
  Ti  Ti1097  1  0.60511550  0.91058002  0.31947132  1.0
  Ti  Ti1098  1  0.69602459  0.07724669  0.31947132  1.0
  Ti  Ti1099  1  0.69602459  0.24391336  0.31947132  1.0
  Ti  Ti1100  1  0.69602459  0.41058002  0.31947132  1.0
  Ti  Ti1101  1  0.69602459  0.57724669  0.31947132  1.0
  Ti  Ti1102  1  0.69602459  0.74391336  0.31947132  1.0
  Ti  Ti1103  1  0.69602459  0.91058002  0.31947132  1.0
  Ti  Ti1104  1  0.78693368  0.07724669  0.31947132  1.0
  Ti  Ti1105  1  0.78693368  0.24391336  0.31947132  1.0
  Ti  Ti1106  1  0.78693368  0.41058002  0.31947132  1.0
  Ti  Ti1107  1  0.78693368  0.57724669  0.31947132  1.0
  Ti  Ti1108  1  0.78693368  0.74391336  0.31947132  1.0
  Ti  Ti1109  1  0.78693368  0.91058002  0.31947132  1.0
  Ti  Ti1110  1  0.87784277  0.07724669  0.31947132  1.0
  Ti  Ti1111  1  0.87784277  0.24391336  0.31947132  1.0
  Ti  Ti1112  1  0.87784277  0.41058002  0.31947132  1.0
  Ti  Ti1113  1  0.87784277  0.57724669  0.31947132  1.0
  Ti  Ti1114  1  0.87784277  0.74391336  0.31947132  1.0
  Ti  Ti1115  1  0.87784277  0.91058002  0.31947132  1.0
  Ti  Ti1116  1  0.96875186  0.07724669  0.31947132  1.0
  Ti  Ti1117  1  0.96875186  0.24391336  0.31947132  1.0
  Ti  Ti1118  1  0.96875186  0.41058002  0.31947132  1.0
  Ti  Ti1119  1  0.96875186  0.57724669  0.31947132  1.0
  Ti  Ti1120  1  0.96875186  0.74391336  0.31947132  1.0
  Ti  Ti1121  1  0.96875186  0.91058002  0.31947132  1.0
  Ti  Ti1122  1  0.01420640  0.08915145  0.24804275  1.0
  Ti  Ti1123  1  0.01420640  0.25581812  0.24804275  1.0
  Ti  Ti1124  1  0.01420640  0.42248479  0.24804275  1.0
  Ti  Ti1125  1  0.01420640  0.58915145  0.24804275  1.0
  Ti  Ti1126  1  0.01420640  0.75581812  0.24804275  1.0
  Ti  Ti1127  1  0.01420640  0.92248479  0.24804275  1.0
  Ti  Ti1128  1  0.10511550  0.08915145  0.24804275  1.0
  Ti  Ti1129  1  0.10511550  0.25581812  0.24804275  1.0
  Ti  Ti1130  1  0.10511550  0.42248479  0.24804275  1.0
  Ti  Ti1131  1  0.10511550  0.58915145  0.24804275  1.0
  Ti  Ti1132  1  0.10511550  0.75581812  0.24804275  1.0
  Ti  Ti1133  1  0.10511550  0.92248479  0.24804275  1.0
  Ti  Ti1134  1  0.19602459  0.08915145  0.24804275  1.0
  Ti  Ti1135  1  0.19602459  0.25581812  0.24804275  1.0
  Ti  Ti1136  1  0.19602459  0.42248479  0.24804275  1.0
  Ti  Ti1137  1  0.19602459  0.58915145  0.24804275  1.0
  Ti  Ti1138  1  0.19602459  0.75581812  0.24804275  1.0
  Ti  Ti1139  1  0.19602459  0.92248479  0.24804275  1.0
  Ti  Ti1140  1  0.28693368  0.08915145  0.24804275  1.0
  Ti  Ti1141  1  0.28693368  0.25581812  0.24804275  1.0
  Ti  Ti1142  1  0.28693368  0.42248479  0.24804275  1.0
  Ti  Ti1143  1  0.28693368  0.58915145  0.24804275  1.0
  Ti  Ti1144  1  0.28693368  0.75581812  0.24804275  1.0
  Ti  Ti1145  1  0.28693368  0.92248479  0.24804275  1.0
  Ti  Ti1146  1  0.37784277  0.08915145  0.24804275  1.0
  Ti  Ti1147  1  0.37784277  0.25581812  0.24804275  1.0
  Ti  Ti1148  1  0.37784277  0.42248479  0.24804275  1.0
  Ti  Ti1149  1  0.37784277  0.58915145  0.24804275  1.0
  Ti  Ti1150  1  0.37784277  0.75581812  0.24804275  1.0
  Ti  Ti1151  1  0.37784277  0.92248479  0.24804275  1.0
  Ti  Ti1152  1  0.46875186  0.08915145  0.24804275  1.0
  Ti  Ti1153  1  0.46875186  0.25581812  0.24804275  1.0
  Ti  Ti1154  1  0.46875186  0.42248479  0.24804275  1.0
  Ti  Ti1155  1  0.46875186  0.58915145  0.24804275  1.0
  Ti  Ti1156  1  0.46875186  0.75581812  0.24804275  1.0
  Ti  Ti1157  1  0.46875186  0.92248479  0.24804275  1.0
  Ti  Ti1158  1  0.55966095  0.08915145  0.24804275  1.0
  Ti  Ti1159  1  0.55966095  0.25581812  0.24804275  1.0
  Ti  Ti1160  1  0.55966095  0.42248479  0.24804275  1.0
  Ti  Ti1161  1  0.55966095  0.58915145  0.24804275  1.0
  Ti  Ti1162  1  0.55966095  0.75581812  0.24804275  1.0
  Ti  Ti1163  1  0.55966095  0.92248479  0.24804275  1.0
  Ti  Ti1164  1  0.65057004  0.08915145  0.24804275  1.0
  Ti  Ti1165  1  0.65057004  0.25581812  0.24804275  1.0
  Ti  Ti1166  1  0.65057004  0.42248479  0.24804275  1.0
  Ti  Ti1167  1  0.65057004  0.58915145  0.24804275  1.0
  Ti  Ti1168  1  0.65057004  0.75581812  0.24804275  1.0
  Ti  Ti1169  1  0.65057004  0.92248479  0.24804275  1.0
  Ti  Ti1170  1  0.74147913  0.08915145  0.24804275  1.0
  Ti  Ti1171  1  0.74147913  0.25581812  0.24804275  1.0
  Ti  Ti1172  1  0.74147913  0.42248479  0.24804275  1.0
  Ti  Ti1173  1  0.74147913  0.58915145  0.24804275  1.0
  Ti  Ti1174  1  0.74147913  0.75581812  0.24804275  1.0
  Ti  Ti1175  1  0.74147913  0.92248479  0.24804275  1.0
  Ti  Ti1176  1  0.83238822  0.08915145  0.24804275  1.0
  Ti  Ti1177  1  0.83238822  0.25581812  0.24804275  1.0
  Ti  Ti1178  1  0.83238822  0.42248479  0.24804275  1.0
  Ti  Ti1179  1  0.83238822  0.58915145  0.24804275  1.0
  Ti  Ti1180  1  0.83238822  0.75581812  0.24804275  1.0
  Ti  Ti1181  1  0.83238822  0.92248479  0.24804275  1.0
  Ti  Ti1182  1  0.92329731  0.08915145  0.24804275  1.0
  Ti  Ti1183  1  0.92329731  0.25581812  0.24804275  1.0
  Ti  Ti1184  1  0.92329731  0.42248479  0.24804275  1.0
  Ti  Ti1185  1  0.92329731  0.58915145  0.24804275  1.0
  Ti  Ti1186  1  0.92329731  0.75581812  0.24804275  1.0
  Ti  Ti1187  1  0.92329731  0.92248479  0.24804275  1.0
  Ti  Ti1188  1  0.06363488  0.12443444  0.32793573  1.0
  Ti  Ti1189  1  0.06363488  0.29110110  0.32793573  1.0
  Ti  Ti1190  1  0.06363488  0.45776777  0.32793573  1.0
  Ti  Ti1191  1  0.06363488  0.62443444  0.32793573  1.0
  Ti  Ti1192  1  0.06363488  0.79110110  0.32793573  1.0
  Ti  Ti1193  1  0.06363488  0.95776777  0.32793573  1.0
  Ti  Ti1194  1  0.15454397  0.12443444  0.32793573  1.0
  Ti  Ti1195  1  0.15454397  0.29110110  0.32793573  1.0
  Ti  Ti1196  1  0.15454397  0.45776777  0.32793573  1.0
  Ti  Ti1197  1  0.15454397  0.62443444  0.32793573  1.0
  Ti  Ti1198  1  0.15454397  0.79110110  0.32793573  1.0
  Ti  Ti1199  1  0.15454397  0.95776777  0.32793573  1.0
  Ti  Ti1200  1  0.24545306  0.12443444  0.32793573  1.0
  Ti  Ti1201  1  0.24545306  0.29110110  0.32793573  1.0
  Ti  Ti1202  1  0.24545306  0.45776777  0.32793573  1.0
  Ti  Ti1203  1  0.24545306  0.62443444  0.32793573  1.0
  Ti  Ti1204  1  0.24545306  0.79110110  0.32793573  1.0
  Ti  Ti1205  1  0.24545306  0.95776777  0.32793573  1.0
  Ti  Ti1206  1  0.33636215  0.12443444  0.32793573  1.0
  Ti  Ti1207  1  0.33636215  0.29110110  0.32793573  1.0
  Ti  Ti1208  1  0.33636215  0.45776777  0.32793573  1.0
  Ti  Ti1209  1  0.33636215  0.62443444  0.32793573  1.0
  Ti  Ti1210  1  0.33636215  0.79110110  0.32793573  1.0
  Ti  Ti1211  1  0.33636215  0.95776777  0.32793573  1.0
  Ti  Ti1212  1  0.42727124  0.12443444  0.32793573  1.0
  Ti  Ti1213  1  0.42727124  0.29110110  0.32793573  1.0
  Ti  Ti1214  1  0.42727124  0.45776777  0.32793573  1.0
  Ti  Ti1215  1  0.42727124  0.62443444  0.32793573  1.0
  Ti  Ti1216  1  0.42727124  0.79110110  0.32793573  1.0
  Ti  Ti1217  1  0.42727124  0.95776777  0.32793573  1.0
  Ti  Ti1218  1  0.51818033  0.12443444  0.32793573  1.0
  Ti  Ti1219  1  0.51818033  0.29110110  0.32793573  1.0
  Ti  Ti1220  1  0.51818033  0.45776777  0.32793573  1.0
  Ti  Ti1221  1  0.51818033  0.62443444  0.32793573  1.0
  Ti  Ti1222  1  0.51818033  0.79110110  0.32793573  1.0
  Ti  Ti1223  1  0.51818033  0.95776777  0.32793573  1.0
  Ti  Ti1224  1  0.60908942  0.12443444  0.32793573  1.0
  Ti  Ti1225  1  0.60908942  0.29110110  0.32793573  1.0
  Ti  Ti1226  1  0.60908942  0.45776777  0.32793573  1.0
  Ti  Ti1227  1  0.60908942  0.62443444  0.32793573  1.0
  Ti  Ti1228  1  0.60908942  0.79110110  0.32793573  1.0
  Ti  Ti1229  1  0.60908942  0.95776777  0.32793573  1.0
  Ti  Ti1230  1  0.69999851  0.12443444  0.32793573  1.0
  Ti  Ti1231  1  0.69999851  0.29110110  0.32793573  1.0
  Ti  Ti1232  1  0.69999851  0.45776777  0.32793573  1.0
  Ti  Ti1233  1  0.69999851  0.62443444  0.32793573  1.0
  Ti  Ti1234  1  0.69999851  0.79110110  0.32793573  1.0
  Ti  Ti1235  1  0.69999851  0.95776777  0.32793573  1.0
  Ti  Ti1236  1  0.79090761  0.12443444  0.32793573  1.0
  Ti  Ti1237  1  0.79090761  0.29110110  0.32793573  1.0
  Ti  Ti1238  1  0.79090761  0.45776777  0.32793573  1.0
  Ti  Ti1239  1  0.79090761  0.62443444  0.32793573  1.0
  Ti  Ti1240  1  0.79090761  0.79110110  0.32793573  1.0
  Ti  Ti1241  1  0.79090761  0.95776777  0.32793573  1.0
  Ti  Ti1242  1  0.88181670  0.12443444  0.32793573  1.0
  Ti  Ti1243  1  0.88181670  0.29110110  0.32793573  1.0
  Ti  Ti1244  1  0.88181670  0.45776777  0.32793573  1.0
  Ti  Ti1245  1  0.88181670  0.62443444  0.32793573  1.0
  Ti  Ti1246  1  0.88181670  0.79110110  0.32793573  1.0
  Ti  Ti1247  1  0.88181670  0.95776777  0.32793573  1.0
  Ti  Ti1248  1  0.97272579  0.12443444  0.32793573  1.0
  Ti  Ti1249  1  0.97272579  0.29110110  0.32793573  1.0
  Ti  Ti1250  1  0.97272579  0.45776777  0.32793573  1.0
  Ti  Ti1251  1  0.97272579  0.62443444  0.32793573  1.0
  Ti  Ti1252  1  0.97272579  0.79110110  0.32793573  1.0
  Ti  Ti1253  1  0.97272579  0.95776777  0.32793573  1.0
  Ti  Ti1254  1  0.01818033  0.13633920  0.25650716  1.0
  Ti  Ti1255  1  0.01818033  0.30300587  0.25650716  1.0
  Ti  Ti1256  1  0.01818033  0.46967253  0.25650716  1.0
  Ti  Ti1257  1  0.01818033  0.63633920  0.25650716  1.0
  Ti  Ti1258  1  0.01818033  0.80300587  0.25650716  1.0
  Ti  Ti1259  1  0.01818033  0.96967253  0.25650716  1.0
  Ti  Ti1260  1  0.10908942  0.13633920  0.25650716  1.0
  Ti  Ti1261  1  0.10908942  0.30300587  0.25650716  1.0
  Ti  Ti1262  1  0.10908942  0.46967253  0.25650716  1.0
  Ti  Ti1263  1  0.10908942  0.63633920  0.25650716  1.0
  Ti  Ti1264  1  0.10908942  0.80300587  0.25650716  1.0
  Ti  Ti1265  1  0.10908942  0.96967253  0.25650716  1.0
  Ti  Ti1266  1  0.19999851  0.13633920  0.25650716  1.0
  Ti  Ti1267  1  0.19999851  0.30300587  0.25650716  1.0
  Ti  Ti1268  1  0.19999851  0.46967253  0.25650716  1.0
  Ti  Ti1269  1  0.19999851  0.63633920  0.25650716  1.0
  Ti  Ti1270  1  0.19999851  0.80300587  0.25650716  1.0
  Ti  Ti1271  1  0.19999851  0.96967253  0.25650716  1.0
  Ti  Ti1272  1  0.29090761  0.13633920  0.25650716  1.0
  Ti  Ti1273  1  0.29090761  0.30300587  0.25650716  1.0
  Ti  Ti1274  1  0.29090761  0.46967253  0.25650716  1.0
  Ti  Ti1275  1  0.29090761  0.63633920  0.25650716  1.0
  Ti  Ti1276  1  0.29090761  0.80300587  0.25650716  1.0
  Ti  Ti1277  1  0.29090761  0.96967253  0.25650716  1.0
  Ti  Ti1278  1  0.38181670  0.13633920  0.25650716  1.0
  Ti  Ti1279  1  0.38181670  0.30300587  0.25650716  1.0
  Ti  Ti1280  1  0.38181670  0.46967253  0.25650716  1.0
  Ti  Ti1281  1  0.38181670  0.63633920  0.25650716  1.0
  Ti  Ti1282  1  0.38181670  0.80300587  0.25650716  1.0
  Ti  Ti1283  1  0.38181670  0.96967253  0.25650716  1.0
  Ti  Ti1284  1  0.47272579  0.13633920  0.25650716  1.0
  Ti  Ti1285  1  0.47272579  0.30300587  0.25650716  1.0
  Ti  Ti1286  1  0.47272579  0.46967253  0.25650716  1.0
  Ti  Ti1287  1  0.47272579  0.63633920  0.25650716  1.0
  Ti  Ti1288  1  0.47272579  0.80300587  0.25650716  1.0
  Ti  Ti1289  1  0.47272579  0.96967253  0.25650716  1.0
  Ti  Ti1290  1  0.56363488  0.13633920  0.25650716  1.0
  Ti  Ti1291  1  0.56363488  0.30300587  0.25650716  1.0
  Ti  Ti1292  1  0.56363488  0.46967253  0.25650716  1.0
  Ti  Ti1293  1  0.56363488  0.63633920  0.25650716  1.0
  Ti  Ti1294  1  0.56363488  0.80300587  0.25650716  1.0
  Ti  Ti1295  1  0.56363488  0.96967253  0.25650716  1.0
  Ti  Ti1296  1  0.65454397  0.13633920  0.25650716  1.0
  Ti  Ti1297  1  0.65454397  0.30300587  0.25650716  1.0
  Ti  Ti1298  1  0.65454397  0.46967253  0.25650716  1.0
  Ti  Ti1299  1  0.65454397  0.63633920  0.25650716  1.0
  Ti  Ti1300  1  0.65454397  0.80300587  0.25650716  1.0
  Ti  Ti1301  1  0.65454397  0.96967253  0.25650716  1.0
  Ti  Ti1302  1  0.74545306  0.13633920  0.25650716  1.0
  Ti  Ti1303  1  0.74545306  0.30300587  0.25650716  1.0
  Ti  Ti1304  1  0.74545306  0.46967253  0.25650716  1.0
  Ti  Ti1305  1  0.74545306  0.63633920  0.25650716  1.0
  Ti  Ti1306  1  0.74545306  0.80300587  0.25650716  1.0
  Ti  Ti1307  1  0.74545306  0.96967253  0.25650716  1.0
  Ti  Ti1308  1  0.83636215  0.13633920  0.25650716  1.0
  Ti  Ti1309  1  0.83636215  0.30300587  0.25650716  1.0
  Ti  Ti1310  1  0.83636215  0.46967253  0.25650716  1.0
  Ti  Ti1311  1  0.83636215  0.63633920  0.25650716  1.0
  Ti  Ti1312  1  0.83636215  0.80300587  0.25650716  1.0
  Ti  Ti1313  1  0.83636215  0.96967253  0.25650716  1.0
  Ti  Ti1314  1  0.92727124  0.13633920  0.25650716  1.0
  Ti  Ti1315  1  0.92727124  0.30300587  0.25650716  1.0
  Ti  Ti1316  1  0.92727124  0.46967253  0.25650716  1.0
  Ti  Ti1317  1  0.92727124  0.63633920  0.25650716  1.0
  Ti  Ti1318  1  0.92727124  0.80300587  0.25650716  1.0
  Ti  Ti1319  1  0.92727124  0.96967253  0.25650716  1.0
  Ti  Ti1320  1  0.05329848  0.03331387  0.30963146  1.0
  Ti  Ti1321  1  0.05329848  0.19998053  0.30963146  1.0
  Ti  Ti1322  1  0.05329848  0.36664720  0.30963146  1.0
  Ti  Ti1323  1  0.05329848  0.53331387  0.30963146  1.0
  Ti  Ti1324  1  0.05329848  0.69998053  0.30963146  1.0
  Ti  Ti1325  1  0.05329848  0.86664720  0.30963146  1.0
  Ti  Ti1326  1  0.14420758  0.03331387  0.30963146  1.0
  Ti  Ti1327  1  0.14420758  0.19998053  0.30963146  1.0
  Ti  Ti1328  1  0.14420758  0.36664720  0.30963146  1.0
  Ti  Ti1329  1  0.14420758  0.53331387  0.30963146  1.0
  Ti  Ti1330  1  0.14420758  0.69998053  0.30963146  1.0
  Ti  Ti1331  1  0.14420758  0.86664720  0.30963146  1.0
  Ti  Ti1332  1  0.23511667  0.03331387  0.30963146  1.0
  Ti  Ti1333  1  0.23511667  0.19998053  0.30963146  1.0
  Ti  Ti1334  1  0.23511667  0.36664720  0.30963146  1.0
  Ti  Ti1335  1  0.23511667  0.53331387  0.30963146  1.0
  Ti  Ti1336  1  0.23511667  0.69998053  0.30963146  1.0
  Ti  Ti1337  1  0.23511667  0.86664720  0.30963146  1.0
  Ti  Ti1338  1  0.32602576  0.03331387  0.30963146  1.0
  Ti  Ti1339  1  0.32602576  0.19998053  0.30963146  1.0
  Ti  Ti1340  1  0.32602576  0.36664720  0.30963146  1.0
  Ti  Ti1341  1  0.32602576  0.53331387  0.30963146  1.0
  Ti  Ti1342  1  0.32602576  0.69998053  0.30963146  1.0
  Ti  Ti1343  1  0.32602576  0.86664720  0.30963146  1.0
  Ti  Ti1344  1  0.41693485  0.03331387  0.30963146  1.0
  Ti  Ti1345  1  0.41693485  0.19998053  0.30963146  1.0
  Ti  Ti1346  1  0.41693485  0.36664720  0.30963146  1.0
  Ti  Ti1347  1  0.41693485  0.53331387  0.30963146  1.0
  Ti  Ti1348  1  0.41693485  0.69998053  0.30963146  1.0
  Ti  Ti1349  1  0.41693485  0.86664720  0.30963146  1.0
  Ti  Ti1350  1  0.50784394  0.03331387  0.30963146  1.0
  Ti  Ti1351  1  0.50784394  0.19998053  0.30963146  1.0
  Ti  Ti1352  1  0.50784394  0.36664720  0.30963146  1.0
  Ti  Ti1353  1  0.50784394  0.53331387  0.30963146  1.0
  Ti  Ti1354  1  0.50784394  0.69998053  0.30963146  1.0
  Ti  Ti1355  1  0.50784394  0.86664720  0.30963146  1.0
  Ti  Ti1356  1  0.59875303  0.03331387  0.30963146  1.0
  Ti  Ti1357  1  0.59875303  0.19998053  0.30963146  1.0
  Ti  Ti1358  1  0.59875303  0.36664720  0.30963146  1.0
  Ti  Ti1359  1  0.59875303  0.53331387  0.30963146  1.0
  Ti  Ti1360  1  0.59875303  0.69998053  0.30963146  1.0
  Ti  Ti1361  1  0.59875303  0.86664720  0.30963146  1.0
  Ti  Ti1362  1  0.68966212  0.03331387  0.30963146  1.0
  Ti  Ti1363  1  0.68966212  0.19998053  0.30963146  1.0
  Ti  Ti1364  1  0.68966212  0.36664720  0.30963146  1.0
  Ti  Ti1365  1  0.68966212  0.53331387  0.30963146  1.0
  Ti  Ti1366  1  0.68966212  0.69998053  0.30963146  1.0
  Ti  Ti1367  1  0.68966212  0.86664720  0.30963146  1.0
  Ti  Ti1368  1  0.78057121  0.03331387  0.30963146  1.0
  Ti  Ti1369  1  0.78057121  0.19998053  0.30963146  1.0
  Ti  Ti1370  1  0.78057121  0.36664720  0.30963146  1.0
  Ti  Ti1371  1  0.78057121  0.53331387  0.30963146  1.0
  Ti  Ti1372  1  0.78057121  0.69998053  0.30963146  1.0
  Ti  Ti1373  1  0.78057121  0.86664720  0.30963146  1.0
  Ti  Ti1374  1  0.87148030  0.03331387  0.30963146  1.0
  Ti  Ti1375  1  0.87148030  0.19998053  0.30963146  1.0
  Ti  Ti1376  1  0.87148030  0.36664720  0.30963146  1.0
  Ti  Ti1377  1  0.87148030  0.53331387  0.30963146  1.0
  Ti  Ti1378  1  0.87148030  0.69998053  0.30963146  1.0
  Ti  Ti1379  1  0.87148030  0.86664720  0.30963146  1.0
  Ti  Ti1380  1  0.96238939  0.03331387  0.30963146  1.0
  Ti  Ti1381  1  0.96238939  0.19998053  0.30963146  1.0
  Ti  Ti1382  1  0.96238939  0.36664720  0.30963146  1.0
  Ti  Ti1383  1  0.96238939  0.53331387  0.30963146  1.0
  Ti  Ti1384  1  0.96238939  0.69998053  0.30963146  1.0
  Ti  Ti1385  1  0.96238939  0.86664720  0.30963146  1.0
  Ti  Ti1386  1  0.00784394  0.04521863  0.23820289  1.0
  Ti  Ti1387  1  0.00784394  0.21188530  0.23820289  1.0
  Ti  Ti1388  1  0.00784394  0.37855196  0.23820289  1.0
  Ti  Ti1389  1  0.00784394  0.54521863  0.23820289  1.0
  Ti  Ti1390  1  0.00784394  0.71188530  0.23820289  1.0
  Ti  Ti1391  1  0.00784394  0.87855196  0.23820289  1.0
  Ti  Ti1392  1  0.09875303  0.04521863  0.23820289  1.0
  Ti  Ti1393  1  0.09875303  0.21188530  0.23820289  1.0
  Ti  Ti1394  1  0.09875303  0.37855196  0.23820289  1.0
  Ti  Ti1395  1  0.09875303  0.54521863  0.23820289  1.0
  Ti  Ti1396  1  0.09875303  0.71188530  0.23820289  1.0
  Ti  Ti1397  1  0.09875303  0.87855196  0.23820289  1.0
  Ti  Ti1398  1  0.18966212  0.04521863  0.23820289  1.0
  Ti  Ti1399  1  0.18966212  0.21188530  0.23820289  1.0
  Ti  Ti1400  1  0.18966212  0.37855196  0.23820289  1.0
  Ti  Ti1401  1  0.18966212  0.54521863  0.23820289  1.0
  Ti  Ti1402  1  0.18966212  0.71188530  0.23820289  1.0
  Ti  Ti1403  1  0.18966212  0.87855196  0.23820289  1.0
  Ti  Ti1404  1  0.28057121  0.04521863  0.23820289  1.0
  Ti  Ti1405  1  0.28057121  0.21188530  0.23820289  1.0
  Ti  Ti1406  1  0.28057121  0.37855196  0.23820289  1.0
  Ti  Ti1407  1  0.28057121  0.54521863  0.23820289  1.0
  Ti  Ti1408  1  0.28057121  0.71188530  0.23820289  1.0
  Ti  Ti1409  1  0.28057121  0.87855196  0.23820289  1.0
  Ti  Ti1410  1  0.37148030  0.04521863  0.23820289  1.0
  Ti  Ti1411  1  0.37148030  0.21188530  0.23820289  1.0
  Ti  Ti1412  1  0.37148030  0.37855196  0.23820289  1.0
  Ti  Ti1413  1  0.37148030  0.54521863  0.23820289  1.0
  Ti  Ti1414  1  0.37148030  0.71188530  0.23820289  1.0
  Ti  Ti1415  1  0.37148030  0.87855196  0.23820289  1.0
  Ti  Ti1416  1  0.46238939  0.04521863  0.23820289  1.0
  Ti  Ti1417  1  0.46238939  0.21188530  0.23820289  1.0
  Ti  Ti1418  1  0.46238939  0.37855196  0.23820289  1.0
  Ti  Ti1419  1  0.46238939  0.54521863  0.23820289  1.0
  Ti  Ti1420  1  0.46238939  0.71188530  0.23820289  1.0
  Ti  Ti1421  1  0.46238939  0.87855196  0.23820289  1.0
  Ti  Ti1422  1  0.55329848  0.04521863  0.23820289  1.0
  Ti  Ti1423  1  0.55329848  0.21188530  0.23820289  1.0
  Ti  Ti1424  1  0.55329848  0.37855196  0.23820289  1.0
  Ti  Ti1425  1  0.55329848  0.54521863  0.23820289  1.0
  Ti  Ti1426  1  0.55329848  0.71188530  0.23820289  1.0
  Ti  Ti1427  1  0.55329848  0.87855196  0.23820289  1.0
  Ti  Ti1428  1  0.64420758  0.04521863  0.23820289  1.0
  Ti  Ti1429  1  0.64420758  0.21188530  0.23820289  1.0
  Ti  Ti1430  1  0.64420758  0.37855196  0.23820289  1.0
  Ti  Ti1431  1  0.64420758  0.54521863  0.23820289  1.0
  Ti  Ti1432  1  0.64420758  0.71188530  0.23820289  1.0
  Ti  Ti1433  1  0.64420758  0.87855196  0.23820289  1.0
  Ti  Ti1434  1  0.73511667  0.04521863  0.23820289  1.0
  Ti  Ti1435  1  0.73511667  0.21188530  0.23820289  1.0
  Ti  Ti1436  1  0.73511667  0.37855196  0.23820289  1.0
  Ti  Ti1437  1  0.73511667  0.54521863  0.23820289  1.0
  Ti  Ti1438  1  0.73511667  0.71188530  0.23820289  1.0
  Ti  Ti1439  1  0.73511667  0.87855196  0.23820289  1.0
  Ti  Ti1440  1  0.82602576  0.04521863  0.23820289  1.0
  Ti  Ti1441  1  0.82602576  0.21188530  0.23820289  1.0
  Ti  Ti1442  1  0.82602576  0.37855196  0.23820289  1.0
  Ti  Ti1443  1  0.82602576  0.54521863  0.23820289  1.0
  Ti  Ti1444  1  0.82602576  0.71188530  0.23820289  1.0
  Ti  Ti1445  1  0.82602576  0.87855196  0.23820289  1.0
  Ti  Ti1446  1  0.91693485  0.04521863  0.23820289  1.0
  Ti  Ti1447  1  0.91693485  0.21188530  0.23820289  1.0
  Ti  Ti1448  1  0.91693485  0.37855196  0.23820289  1.0
  Ti  Ti1449  1  0.91693485  0.54521863  0.23820289  1.0
  Ti  Ti1450  1  0.91693485  0.71188530  0.23820289  1.0
  Ti  Ti1451  1  0.91693485  0.87855196  0.23820289  1.0
  Ti  Ti1452  1  0.05092418  0.01937211  0.37930828  1.0
  Ti  Ti1453  1  0.05092418  0.18603877  0.37930828  1.0
  Ti  Ti1454  1  0.05092418  0.35270544  0.37930828  1.0
  Ti  Ti1455  1  0.05092418  0.51937211  0.37930828  1.0
  Ti  Ti1456  1  0.05092418  0.68603877  0.37930828  1.0
  Ti  Ti1457  1  0.05092418  0.85270544  0.37930828  1.0
  Ti  Ti1458  1  0.14183328  0.01937211  0.37930828  1.0
  Ti  Ti1459  1  0.14183328  0.18603877  0.37930828  1.0
  Ti  Ti1460  1  0.14183328  0.35270544  0.37930828  1.0
  Ti  Ti1461  1  0.14183328  0.51937211  0.37930828  1.0
  Ti  Ti1462  1  0.14183328  0.68603877  0.37930828  1.0
  Ti  Ti1463  1  0.14183328  0.85270544  0.37930828  1.0
  Ti  Ti1464  1  0.23274237  0.01937211  0.37930828  1.0
  Ti  Ti1465  1  0.23274237  0.18603877  0.37930828  1.0
  Ti  Ti1466  1  0.23274237  0.35270544  0.37930828  1.0
  Ti  Ti1467  1  0.23274237  0.51937211  0.37930828  1.0
  Ti  Ti1468  1  0.23274237  0.68603877  0.37930828  1.0
  Ti  Ti1469  1  0.23274237  0.85270544  0.37930828  1.0
  Ti  Ti1470  1  0.32365146  0.01937211  0.37930828  1.0
  Ti  Ti1471  1  0.32365146  0.18603877  0.37930828  1.0
  Ti  Ti1472  1  0.32365146  0.35270544  0.37930828  1.0
  Ti  Ti1473  1  0.32365146  0.51937211  0.37930828  1.0
  Ti  Ti1474  1  0.32365146  0.68603877  0.37930828  1.0
  Ti  Ti1475  1  0.32365146  0.85270544  0.37930828  1.0
  Ti  Ti1476  1  0.41456055  0.01937211  0.37930828  1.0
  Ti  Ti1477  1  0.41456055  0.18603877  0.37930828  1.0
  Ti  Ti1478  1  0.41456055  0.35270544  0.37930828  1.0
  Ti  Ti1479  1  0.41456055  0.51937211  0.37930828  1.0
  Ti  Ti1480  1  0.41456055  0.68603877  0.37930828  1.0
  Ti  Ti1481  1  0.41456055  0.85270544  0.37930828  1.0
  Ti  Ti1482  1  0.50546964  0.01937211  0.37930828  1.0
  Ti  Ti1483  1  0.50546964  0.18603877  0.37930828  1.0
  Ti  Ti1484  1  0.50546964  0.35270544  0.37930828  1.0
  Ti  Ti1485  1  0.50546964  0.51937211  0.37930828  1.0
  Ti  Ti1486  1  0.50546964  0.68603877  0.37930828  1.0
  Ti  Ti1487  1  0.50546964  0.85270544  0.37930828  1.0
  Ti  Ti1488  1  0.59637873  0.01937211  0.37930828  1.0
  Ti  Ti1489  1  0.59637873  0.18603877  0.37930828  1.0
  Ti  Ti1490  1  0.59637873  0.35270544  0.37930828  1.0
  Ti  Ti1491  1  0.59637873  0.51937211  0.37930828  1.0
  Ti  Ti1492  1  0.59637873  0.68603877  0.37930828  1.0
  Ti  Ti1493  1  0.59637873  0.85270544  0.37930828  1.0
  Ti  Ti1494  1  0.68728782  0.01937211  0.37930828  1.0
  Ti  Ti1495  1  0.68728782  0.18603877  0.37930828  1.0
  Ti  Ti1496  1  0.68728782  0.35270544  0.37930828  1.0
  Ti  Ti1497  1  0.68728782  0.51937211  0.37930828  1.0
  Ti  Ti1498  1  0.68728782  0.68603877  0.37930828  1.0
  Ti  Ti1499  1  0.68728782  0.85270544  0.37930828  1.0
  Ti  Ti1500  1  0.77819691  0.01937211  0.37930828  1.0
  Ti  Ti1501  1  0.77819691  0.18603877  0.37930828  1.0
  Ti  Ti1502  1  0.77819691  0.35270544  0.37930828  1.0
  Ti  Ti1503  1  0.77819691  0.51937211  0.37930828  1.0
  Ti  Ti1504  1  0.77819691  0.68603877  0.37930828  1.0
  Ti  Ti1505  1  0.77819691  0.85270544  0.37930828  1.0
  Ti  Ti1506  1  0.86910600  0.01937211  0.37930828  1.0
  Ti  Ti1507  1  0.86910600  0.18603877  0.37930828  1.0
  Ti  Ti1508  1  0.86910600  0.35270544  0.37930828  1.0
  Ti  Ti1509  1  0.86910600  0.51937211  0.37930828  1.0
  Ti  Ti1510  1  0.86910600  0.68603877  0.37930828  1.0
  Ti  Ti1511  1  0.86910600  0.85270544  0.37930828  1.0
  Ti  Ti1512  1  0.96001509  0.01937211  0.37930828  1.0
  Ti  Ti1513  1  0.96001509  0.18603877  0.37930828  1.0
  Ti  Ti1514  1  0.96001509  0.35270544  0.37930828  1.0
  Ti  Ti1515  1  0.96001509  0.51937211  0.37930828  1.0
  Ti  Ti1516  1  0.96001509  0.68603877  0.37930828  1.0
  Ti  Ti1517  1  0.96001509  0.85270544  0.37930828  1.0
  Ti  Ti1518  1  0.00546964  0.00746734  0.45073685  1.0
  Ti  Ti1519  1  0.00546964  0.17413401  0.45073685  1.0
  Ti  Ti1520  1  0.00546964  0.34080068  0.45073685  1.0
  Ti  Ti1521  1  0.00546964  0.50746734  0.45073685  1.0
  Ti  Ti1522  1  0.00546964  0.67413401  0.45073685  1.0
  Ti  Ti1523  1  0.00546964  0.84080068  0.45073685  1.0
  Ti  Ti1524  1  0.09637873  0.00746734  0.45073685  1.0
  Ti  Ti1525  1  0.09637873  0.17413401  0.45073685  1.0
  Ti  Ti1526  1  0.09637873  0.34080068  0.45073685  1.0
  Ti  Ti1527  1  0.09637873  0.50746734  0.45073685  1.0
  Ti  Ti1528  1  0.09637873  0.67413401  0.45073685  1.0
  Ti  Ti1529  1  0.09637873  0.84080068  0.45073685  1.0
  Ti  Ti1530  1  0.18728782  0.00746734  0.45073685  1.0
  Ti  Ti1531  1  0.18728782  0.17413401  0.45073685  1.0
  Ti  Ti1532  1  0.18728782  0.34080068  0.45073685  1.0
  Ti  Ti1533  1  0.18728782  0.50746734  0.45073685  1.0
  Ti  Ti1534  1  0.18728782  0.67413401  0.45073685  1.0
  Ti  Ti1535  1  0.18728782  0.84080068  0.45073685  1.0
  Ti  Ti1536  1  0.27819691  0.00746734  0.45073685  1.0
  Ti  Ti1537  1  0.27819691  0.17413401  0.45073685  1.0
  Ti  Ti1538  1  0.27819691  0.34080068  0.45073685  1.0
  Ti  Ti1539  1  0.27819691  0.50746734  0.45073685  1.0
  Ti  Ti1540  1  0.27819691  0.67413401  0.45073685  1.0
  Ti  Ti1541  1  0.27819691  0.84080068  0.45073685  1.0
  Ti  Ti1542  1  0.36910600  0.00746734  0.45073685  1.0
  Ti  Ti1543  1  0.36910600  0.17413401  0.45073685  1.0
  Ti  Ti1544  1  0.36910600  0.34080068  0.45073685  1.0
  Ti  Ti1545  1  0.36910600  0.50746734  0.45073685  1.0
  Ti  Ti1546  1  0.36910600  0.67413401  0.45073685  1.0
  Ti  Ti1547  1  0.36910600  0.84080068  0.45073685  1.0
  Ti  Ti1548  1  0.46001509  0.00746734  0.45073685  1.0
  Ti  Ti1549  1  0.46001509  0.17413401  0.45073685  1.0
  Ti  Ti1550  1  0.46001509  0.34080068  0.45073685  1.0
  Ti  Ti1551  1  0.46001509  0.50746734  0.45073685  1.0
  Ti  Ti1552  1  0.46001509  0.67413401  0.45073685  1.0
  Ti  Ti1553  1  0.46001509  0.84080068  0.45073685  1.0
  Ti  Ti1554  1  0.55092418  0.00746734  0.45073685  1.0
  Ti  Ti1555  1  0.55092418  0.17413401  0.45073685  1.0
  Ti  Ti1556  1  0.55092418  0.34080068  0.45073685  1.0
  Ti  Ti1557  1  0.55092418  0.50746734  0.45073685  1.0
  Ti  Ti1558  1  0.55092418  0.67413401  0.45073685  1.0
  Ti  Ti1559  1  0.55092418  0.84080068  0.45073685  1.0
  Ti  Ti1560  1  0.64183328  0.00746734  0.45073685  1.0
  Ti  Ti1561  1  0.64183328  0.17413401  0.45073685  1.0
  Ti  Ti1562  1  0.64183328  0.34080068  0.45073685  1.0
  Ti  Ti1563  1  0.64183328  0.50746734  0.45073685  1.0
  Ti  Ti1564  1  0.64183328  0.67413401  0.45073685  1.0
  Ti  Ti1565  1  0.64183328  0.84080068  0.45073685  1.0
  Ti  Ti1566  1  0.73274237  0.00746734  0.45073685  1.0
  Ti  Ti1567  1  0.73274237  0.17413401  0.45073685  1.0
  Ti  Ti1568  1  0.73274237  0.34080068  0.45073685  1.0
  Ti  Ti1569  1  0.73274237  0.50746734  0.45073685  1.0
  Ti  Ti1570  1  0.73274237  0.67413401  0.45073685  1.0
  Ti  Ti1571  1  0.73274237  0.84080068  0.45073685  1.0
  Ti  Ti1572  1  0.82365146  0.00746734  0.45073685  1.0
  Ti  Ti1573  1  0.82365146  0.17413401  0.45073685  1.0
  Ti  Ti1574  1  0.82365146  0.34080068  0.45073685  1.0
  Ti  Ti1575  1  0.82365146  0.50746734  0.45073685  1.0
  Ti  Ti1576  1  0.82365146  0.67413401  0.45073685  1.0
  Ti  Ti1577  1  0.82365146  0.84080068  0.45073685  1.0
  Ti  Ti1578  1  0.91456055  0.00746734  0.45073685  1.0
  Ti  Ti1579  1  0.91456055  0.17413401  0.45073685  1.0
  Ti  Ti1580  1  0.91456055  0.34080068  0.45073685  1.0
  Ti  Ti1581  1  0.91456055  0.50746734  0.45073685  1.0
  Ti  Ti1582  1  0.91456055  0.67413401  0.45073685  1.0
  Ti  Ti1583  1  0.91456055  0.84080068  0.45073685  1.0
  Ti  Ti1584  1  0.02023397  0.10046249  0.47062587  1.0
  Ti  Ti1585  1  0.02023397  0.26712916  0.47062587  1.0
  Ti  Ti1586  1  0.02023397  0.43379582  0.47062587  1.0
  Ti  Ti1587  1  0.02023397  0.60046249  0.47062587  1.0
  Ti  Ti1588  1  0.02023397  0.76712916  0.47062587  1.0
  Ti  Ti1589  1  0.02023397  0.93379582  0.47062587  1.0
  Ti  Ti1590  1  0.11114306  0.10046249  0.47062587  1.0
  Ti  Ti1591  1  0.11114306  0.26712916  0.47062587  1.0
  Ti  Ti1592  1  0.11114306  0.43379582  0.47062587  1.0
  Ti  Ti1593  1  0.11114306  0.60046249  0.47062587  1.0
  Ti  Ti1594  1  0.11114306  0.76712916  0.47062587  1.0
  Ti  Ti1595  1  0.11114306  0.93379582  0.47062587  1.0
  Ti  Ti1596  1  0.20205216  0.10046249  0.47062587  1.0
  Ti  Ti1597  1  0.20205216  0.26712916  0.47062587  1.0
  Ti  Ti1598  1  0.20205216  0.43379582  0.47062587  1.0
  Ti  Ti1599  1  0.20205216  0.60046249  0.47062587  1.0
  Ti  Ti1600  1  0.20205216  0.76712916  0.47062587  1.0
  Ti  Ti1601  1  0.20205216  0.93379582  0.47062587  1.0
  Ti  Ti1602  1  0.29296125  0.10046249  0.47062587  1.0
  Ti  Ti1603  1  0.29296125  0.26712916  0.47062587  1.0
  Ti  Ti1604  1  0.29296125  0.43379582  0.47062587  1.0
  Ti  Ti1605  1  0.29296125  0.60046249  0.47062587  1.0
  Ti  Ti1606  1  0.29296125  0.76712916  0.47062587  1.0
  Ti  Ti1607  1  0.29296125  0.93379582  0.47062587  1.0
  Ti  Ti1608  1  0.38387034  0.10046249  0.47062587  1.0
  Ti  Ti1609  1  0.38387034  0.26712916  0.47062587  1.0
  Ti  Ti1610  1  0.38387034  0.43379582  0.47062587  1.0
  Ti  Ti1611  1  0.38387034  0.60046249  0.47062587  1.0
  Ti  Ti1612  1  0.38387034  0.76712916  0.47062587  1.0
  Ti  Ti1613  1  0.38387034  0.93379582  0.47062587  1.0
  Ti  Ti1614  1  0.47477943  0.10046249  0.47062587  1.0
  Ti  Ti1615  1  0.47477943  0.26712916  0.47062587  1.0
  Ti  Ti1616  1  0.47477943  0.43379582  0.47062587  1.0
  Ti  Ti1617  1  0.47477943  0.60046249  0.47062587  1.0
  Ti  Ti1618  1  0.47477943  0.76712916  0.47062587  1.0
  Ti  Ti1619  1  0.47477943  0.93379582  0.47062587  1.0
  Ti  Ti1620  1  0.56568852  0.10046249  0.47062587  1.0
  Ti  Ti1621  1  0.56568852  0.26712916  0.47062587  1.0
  Ti  Ti1622  1  0.56568852  0.43379582  0.47062587  1.0
  Ti  Ti1623  1  0.56568852  0.60046249  0.47062587  1.0
  Ti  Ti1624  1  0.56568852  0.76712916  0.47062587  1.0
  Ti  Ti1625  1  0.56568852  0.93379582  0.47062587  1.0
  Ti  Ti1626  1  0.65659761  0.10046249  0.47062587  1.0
  Ti  Ti1627  1  0.65659761  0.26712916  0.47062587  1.0
  Ti  Ti1628  1  0.65659761  0.43379582  0.47062587  1.0
  Ti  Ti1629  1  0.65659761  0.60046249  0.47062587  1.0
  Ti  Ti1630  1  0.65659761  0.76712916  0.47062587  1.0
  Ti  Ti1631  1  0.65659761  0.93379582  0.47062587  1.0
  Ti  Ti1632  1  0.74750670  0.10046249  0.47062587  1.0
  Ti  Ti1633  1  0.74750670  0.26712916  0.47062587  1.0
  Ti  Ti1634  1  0.74750670  0.43379582  0.47062587  1.0
  Ti  Ti1635  1  0.74750670  0.60046249  0.47062587  1.0
  Ti  Ti1636  1  0.74750670  0.76712916  0.47062587  1.0
  Ti  Ti1637  1  0.74750670  0.93379582  0.47062587  1.0
  Ti  Ti1638  1  0.83841579  0.10046249  0.47062587  1.0
  Ti  Ti1639  1  0.83841579  0.26712916  0.47062587  1.0
  Ti  Ti1640  1  0.83841579  0.43379582  0.47062587  1.0
  Ti  Ti1641  1  0.83841579  0.60046249  0.47062587  1.0
  Ti  Ti1642  1  0.83841579  0.76712916  0.47062587  1.0
  Ti  Ti1643  1  0.83841579  0.93379582  0.47062587  1.0
  Ti  Ti1644  1  0.92932488  0.10046249  0.47062587  1.0
  Ti  Ti1645  1  0.92932488  0.26712916  0.47062587  1.0
  Ti  Ti1646  1  0.92932488  0.43379582  0.47062587  1.0
  Ti  Ti1647  1  0.92932488  0.60046249  0.47062587  1.0
  Ti  Ti1648  1  0.92932488  0.76712916  0.47062587  1.0
  Ti  Ti1649  1  0.92932488  0.93379582  0.47062587  1.0
  Ti  Ti1650  1  0.06568852  0.11236725  0.39919730  1.0
  Ti  Ti1651  1  0.06568852  0.27903392  0.39919730  1.0
  Ti  Ti1652  1  0.06568852  0.44570058  0.39919730  1.0
  Ti  Ti1653  1  0.06568852  0.61236725  0.39919730  1.0
  Ti  Ti1654  1  0.06568852  0.77903392  0.39919730  1.0
  Ti  Ti1655  1  0.06568852  0.94570058  0.39919730  1.0
  Ti  Ti1656  1  0.15659761  0.11236725  0.39919730  1.0
  Ti  Ti1657  1  0.15659761  0.27903392  0.39919730  1.0
  Ti  Ti1658  1  0.15659761  0.44570058  0.39919730  1.0
  Ti  Ti1659  1  0.15659761  0.61236725  0.39919730  1.0
  Ti  Ti1660  1  0.15659761  0.77903392  0.39919730  1.0
  Ti  Ti1661  1  0.15659761  0.94570058  0.39919730  1.0
  Ti  Ti1662  1  0.24750670  0.11236725  0.39919730  1.0
  Ti  Ti1663  1  0.24750670  0.27903392  0.39919730  1.0
  Ti  Ti1664  1  0.24750670  0.44570058  0.39919730  1.0
  Ti  Ti1665  1  0.24750670  0.61236725  0.39919730  1.0
  Ti  Ti1666  1  0.24750670  0.77903392  0.39919730  1.0
  Ti  Ti1667  1  0.24750670  0.94570058  0.39919730  1.0
  Ti  Ti1668  1  0.33841579  0.11236725  0.39919730  1.0
  Ti  Ti1669  1  0.33841579  0.27903392  0.39919730  1.0
  Ti  Ti1670  1  0.33841579  0.44570058  0.39919730  1.0
  Ti  Ti1671  1  0.33841579  0.61236725  0.39919730  1.0
  Ti  Ti1672  1  0.33841579  0.77903392  0.39919730  1.0
  Ti  Ti1673  1  0.33841579  0.94570058  0.39919730  1.0
  Ti  Ti1674  1  0.42932488  0.11236725  0.39919730  1.0
  Ti  Ti1675  1  0.42932488  0.27903392  0.39919730  1.0
  Ti  Ti1676  1  0.42932488  0.44570058  0.39919730  1.0
  Ti  Ti1677  1  0.42932488  0.61236725  0.39919730  1.0
  Ti  Ti1678  1  0.42932488  0.77903392  0.39919730  1.0
  Ti  Ti1679  1  0.42932488  0.94570058  0.39919730  1.0
  Ti  Ti1680  1  0.52023397  0.11236725  0.39919730  1.0
  Ti  Ti1681  1  0.52023397  0.27903392  0.39919730  1.0
  Ti  Ti1682  1  0.52023397  0.44570058  0.39919730  1.0
  Ti  Ti1683  1  0.52023397  0.61236725  0.39919730  1.0
  Ti  Ti1684  1  0.52023397  0.77903392  0.39919730  1.0
  Ti  Ti1685  1  0.52023397  0.94570058  0.39919730  1.0
  Ti  Ti1686  1  0.61114306  0.11236725  0.39919730  1.0
  Ti  Ti1687  1  0.61114306  0.27903392  0.39919730  1.0
  Ti  Ti1688  1  0.61114306  0.44570058  0.39919730  1.0
  Ti  Ti1689  1  0.61114306  0.61236725  0.39919730  1.0
  Ti  Ti1690  1  0.61114306  0.77903392  0.39919730  1.0
  Ti  Ti1691  1  0.61114306  0.94570058  0.39919730  1.0
  Ti  Ti1692  1  0.70205216  0.11236725  0.39919730  1.0
  Ti  Ti1693  1  0.70205216  0.27903392  0.39919730  1.0
  Ti  Ti1694  1  0.70205216  0.44570058  0.39919730  1.0
  Ti  Ti1695  1  0.70205216  0.61236725  0.39919730  1.0
  Ti  Ti1696  1  0.70205216  0.77903392  0.39919730  1.0
  Ti  Ti1697  1  0.70205216  0.94570058  0.39919730  1.0
  Ti  Ti1698  1  0.79296125  0.11236725  0.39919730  1.0
  Ti  Ti1699  1  0.79296125  0.27903392  0.39919730  1.0
  Ti  Ti1700  1  0.79296125  0.44570058  0.39919730  1.0
  Ti  Ti1701  1  0.79296125  0.61236725  0.39919730  1.0
  Ti  Ti1702  1  0.79296125  0.77903392  0.39919730  1.0
  Ti  Ti1703  1  0.79296125  0.94570058  0.39919730  1.0
  Ti  Ti1704  1  0.88387034  0.11236725  0.39919730  1.0
  Ti  Ti1705  1  0.88387034  0.27903392  0.39919730  1.0
  Ti  Ti1706  1  0.88387034  0.44570058  0.39919730  1.0
  Ti  Ti1707  1  0.88387034  0.61236725  0.39919730  1.0
  Ti  Ti1708  1  0.88387034  0.77903392  0.39919730  1.0
  Ti  Ti1709  1  0.88387034  0.94570058  0.39919730  1.0
  Ti  Ti1710  1  0.97477943  0.11236725  0.39919730  1.0
  Ti  Ti1711  1  0.97477943  0.27903392  0.39919730  1.0
  Ti  Ti1712  1  0.97477943  0.44570058  0.39919730  1.0
  Ti  Ti1713  1  0.97477943  0.61236725  0.39919730  1.0
  Ti  Ti1714  1  0.97477943  0.77903392  0.39919730  1.0
  Ti  Ti1715  1  0.97477943  0.94570058  0.39919730  1.0
  Ti  Ti1716  1  0.05762150  0.06551423  0.39107761  1.0
  Ti  Ti1717  1  0.05762150  0.23218090  0.39107761  1.0
  Ti  Ti1718  1  0.05762150  0.39884757  0.39107761  1.0
  Ti  Ti1719  1  0.05762150  0.56551423  0.39107761  1.0
  Ti  Ti1720  1  0.05762150  0.73218090  0.39107761  1.0
  Ti  Ti1721  1  0.05762150  0.89884757  0.39107761  1.0
  Ti  Ti1722  1  0.14853059  0.06551423  0.39107761  1.0
  Ti  Ti1723  1  0.14853059  0.23218090  0.39107761  1.0
  Ti  Ti1724  1  0.14853059  0.39884757  0.39107761  1.0
  Ti  Ti1725  1  0.14853059  0.56551423  0.39107761  1.0
  Ti  Ti1726  1  0.14853059  0.73218090  0.39107761  1.0
  Ti  Ti1727  1  0.14853059  0.89884757  0.39107761  1.0
  Ti  Ti1728  1  0.23943968  0.06551423  0.39107761  1.0
  Ti  Ti1729  1  0.23943968  0.23218090  0.39107761  1.0
  Ti  Ti1730  1  0.23943968  0.39884757  0.39107761  1.0
  Ti  Ti1731  1  0.23943968  0.56551423  0.39107761  1.0
  Ti  Ti1732  1  0.23943968  0.73218090  0.39107761  1.0
  Ti  Ti1733  1  0.23943968  0.89884757  0.39107761  1.0
  Ti  Ti1734  1  0.33034877  0.06551423  0.39107761  1.0
  Ti  Ti1735  1  0.33034877  0.23218090  0.39107761  1.0
  Ti  Ti1736  1  0.33034877  0.39884757  0.39107761  1.0
  Ti  Ti1737  1  0.33034877  0.56551423  0.39107761  1.0
  Ti  Ti1738  1  0.33034877  0.73218090  0.39107761  1.0
  Ti  Ti1739  1  0.33034877  0.89884757  0.39107761  1.0
  Ti  Ti1740  1  0.42125786  0.06551423  0.39107761  1.0
  Ti  Ti1741  1  0.42125786  0.23218090  0.39107761  1.0
  Ti  Ti1742  1  0.42125786  0.39884757  0.39107761  1.0
  Ti  Ti1743  1  0.42125786  0.56551423  0.39107761  1.0
  Ti  Ti1744  1  0.42125786  0.73218090  0.39107761  1.0
  Ti  Ti1745  1  0.42125786  0.89884757  0.39107761  1.0
  Ti  Ti1746  1  0.51216695  0.06551423  0.39107761  1.0
  Ti  Ti1747  1  0.51216695  0.23218090  0.39107761  1.0
  Ti  Ti1748  1  0.51216695  0.39884757  0.39107761  1.0
  Ti  Ti1749  1  0.51216695  0.56551423  0.39107761  1.0
  Ti  Ti1750  1  0.51216695  0.73218090  0.39107761  1.0
  Ti  Ti1751  1  0.51216695  0.89884757  0.39107761  1.0
  Ti  Ti1752  1  0.60307604  0.06551423  0.39107761  1.0
  Ti  Ti1753  1  0.60307604  0.23218090  0.39107761  1.0
  Ti  Ti1754  1  0.60307604  0.39884757  0.39107761  1.0
  Ti  Ti1755  1  0.60307604  0.56551423  0.39107761  1.0
  Ti  Ti1756  1  0.60307604  0.73218090  0.39107761  1.0
  Ti  Ti1757  1  0.60307604  0.89884757  0.39107761  1.0
  Ti  Ti1758  1  0.69398513  0.06551423  0.39107761  1.0
  Ti  Ti1759  1  0.69398513  0.23218090  0.39107761  1.0
  Ti  Ti1760  1  0.69398513  0.39884757  0.39107761  1.0
  Ti  Ti1761  1  0.69398513  0.56551423  0.39107761  1.0
  Ti  Ti1762  1  0.69398513  0.73218090  0.39107761  1.0
  Ti  Ti1763  1  0.69398513  0.89884757  0.39107761  1.0
  Ti  Ti1764  1  0.78489423  0.06551423  0.39107761  1.0
  Ti  Ti1765  1  0.78489423  0.23218090  0.39107761  1.0
  Ti  Ti1766  1  0.78489423  0.39884757  0.39107761  1.0
  Ti  Ti1767  1  0.78489423  0.56551423  0.39107761  1.0
  Ti  Ti1768  1  0.78489423  0.73218090  0.39107761  1.0
  Ti  Ti1769  1  0.78489423  0.89884757  0.39107761  1.0
  Ti  Ti1770  1  0.87580332  0.06551423  0.39107761  1.0
  Ti  Ti1771  1  0.87580332  0.23218090  0.39107761  1.0
  Ti  Ti1772  1  0.87580332  0.39884757  0.39107761  1.0
  Ti  Ti1773  1  0.87580332  0.56551423  0.39107761  1.0
  Ti  Ti1774  1  0.87580332  0.73218090  0.39107761  1.0
  Ti  Ti1775  1  0.87580332  0.89884757  0.39107761  1.0
  Ti  Ti1776  1  0.96671241  0.06551423  0.39107761  1.0
  Ti  Ti1777  1  0.96671241  0.23218090  0.39107761  1.0
  Ti  Ti1778  1  0.96671241  0.39884757  0.39107761  1.0
  Ti  Ti1779  1  0.96671241  0.56551423  0.39107761  1.0
  Ti  Ti1780  1  0.96671241  0.73218090  0.39107761  1.0
  Ti  Ti1781  1  0.96671241  0.89884757  0.39107761  1.0
  Ti  Ti1782  1  0.01216695  0.05360947  0.46250618  1.0
  Ti  Ti1783  1  0.01216695  0.22027614  0.46250618  1.0
  Ti  Ti1784  1  0.01216695  0.38694280  0.46250618  1.0
  Ti  Ti1785  1  0.01216695  0.55360947  0.46250618  1.0
  Ti  Ti1786  1  0.01216695  0.72027614  0.46250618  1.0
  Ti  Ti1787  1  0.01216695  0.88694280  0.46250618  1.0
  Ti  Ti1788  1  0.10307604  0.05360947  0.46250618  1.0
  Ti  Ti1789  1  0.10307604  0.22027614  0.46250618  1.0
  Ti  Ti1790  1  0.10307604  0.38694280  0.46250618  1.0
  Ti  Ti1791  1  0.10307604  0.55360947  0.46250618  1.0
  Ti  Ti1792  1  0.10307604  0.72027614  0.46250618  1.0
  Ti  Ti1793  1  0.10307604  0.88694280  0.46250618  1.0
  Ti  Ti1794  1  0.19398513  0.05360947  0.46250618  1.0
  Ti  Ti1795  1  0.19398513  0.22027614  0.46250618  1.0
  Ti  Ti1796  1  0.19398513  0.38694280  0.46250618  1.0
  Ti  Ti1797  1  0.19398513  0.55360947  0.46250618  1.0
  Ti  Ti1798  1  0.19398513  0.72027614  0.46250618  1.0
  Ti  Ti1799  1  0.19398513  0.88694280  0.46250618  1.0
  Ti  Ti1800  1  0.28489423  0.05360947  0.46250618  1.0
  Ti  Ti1801  1  0.28489423  0.22027614  0.46250618  1.0
  Ti  Ti1802  1  0.28489423  0.38694280  0.46250618  1.0
  Ti  Ti1803  1  0.28489423  0.55360947  0.46250618  1.0
  Ti  Ti1804  1  0.28489423  0.72027614  0.46250618  1.0
  Ti  Ti1805  1  0.28489423  0.88694280  0.46250618  1.0
  Ti  Ti1806  1  0.37580332  0.05360947  0.46250618  1.0
  Ti  Ti1807  1  0.37580332  0.22027614  0.46250618  1.0
  Ti  Ti1808  1  0.37580332  0.38694280  0.46250618  1.0
  Ti  Ti1809  1  0.37580332  0.55360947  0.46250618  1.0
  Ti  Ti1810  1  0.37580332  0.72027614  0.46250618  1.0
  Ti  Ti1811  1  0.37580332  0.88694280  0.46250618  1.0
  Ti  Ti1812  1  0.46671241  0.05360947  0.46250618  1.0
  Ti  Ti1813  1  0.46671241  0.22027614  0.46250618  1.0
  Ti  Ti1814  1  0.46671241  0.38694280  0.46250618  1.0
  Ti  Ti1815  1  0.46671241  0.55360947  0.46250618  1.0
  Ti  Ti1816  1  0.46671241  0.72027614  0.46250618  1.0
  Ti  Ti1817  1  0.46671241  0.88694280  0.46250618  1.0
  Ti  Ti1818  1  0.55762150  0.05360947  0.46250618  1.0
  Ti  Ti1819  1  0.55762150  0.22027614  0.46250618  1.0
  Ti  Ti1820  1  0.55762150  0.38694280  0.46250618  1.0
  Ti  Ti1821  1  0.55762150  0.55360947  0.46250618  1.0
  Ti  Ti1822  1  0.55762150  0.72027614  0.46250618  1.0
  Ti  Ti1823  1  0.55762150  0.88694280  0.46250618  1.0
  Ti  Ti1824  1  0.64853059  0.05360947  0.46250618  1.0
  Ti  Ti1825  1  0.64853059  0.22027614  0.46250618  1.0
  Ti  Ti1826  1  0.64853059  0.38694280  0.46250618  1.0
  Ti  Ti1827  1  0.64853059  0.55360947  0.46250618  1.0
  Ti  Ti1828  1  0.64853059  0.72027614  0.46250618  1.0
  Ti  Ti1829  1  0.64853059  0.88694280  0.46250618  1.0
  Ti  Ti1830  1  0.73943968  0.05360947  0.46250618  1.0
  Ti  Ti1831  1  0.73943968  0.22027614  0.46250618  1.0
  Ti  Ti1832  1  0.73943968  0.38694280  0.46250618  1.0
  Ti  Ti1833  1  0.73943968  0.55360947  0.46250618  1.0
  Ti  Ti1834  1  0.73943968  0.72027614  0.46250618  1.0
  Ti  Ti1835  1  0.73943968  0.88694280  0.46250618  1.0
  Ti  Ti1836  1  0.83034877  0.05360947  0.46250618  1.0
  Ti  Ti1837  1  0.83034877  0.22027614  0.46250618  1.0
  Ti  Ti1838  1  0.83034877  0.38694280  0.46250618  1.0
  Ti  Ti1839  1  0.83034877  0.55360947  0.46250618  1.0
  Ti  Ti1840  1  0.83034877  0.72027614  0.46250618  1.0
  Ti  Ti1841  1  0.83034877  0.88694280  0.46250618  1.0
  Ti  Ti1842  1  0.92125786  0.05360947  0.46250618  1.0
  Ti  Ti1843  1  0.92125786  0.22027614  0.46250618  1.0
  Ti  Ti1844  1  0.92125786  0.38694280  0.46250618  1.0
  Ti  Ti1845  1  0.92125786  0.55360947  0.46250618  1.0
  Ti  Ti1846  1  0.92125786  0.72027614  0.46250618  1.0
  Ti  Ti1847  1  0.92125786  0.88694280  0.46250618  1.0
  Ti  Ti1848  1  0.04517765  0.12588830  0.44262662  1.0
  Ti  Ti1849  1  0.04517765  0.29255497  0.44262662  1.0
  Ti  Ti1850  1  0.04517765  0.45922163  0.44262662  1.0
  Ti  Ti1851  1  0.04517765  0.62588830  0.44262662  1.0
  Ti  Ti1852  1  0.04517765  0.79255497  0.44262662  1.0
  Ti  Ti1853  1  0.04517765  0.95922163  0.44262662  1.0
  Ti  Ti1854  1  0.13608674  0.12588830  0.44262662  1.0
  Ti  Ti1855  1  0.13608674  0.29255497  0.44262662  1.0
  Ti  Ti1856  1  0.13608674  0.45922163  0.44262662  1.0
  Ti  Ti1857  1  0.13608674  0.62588830  0.44262662  1.0
  Ti  Ti1858  1  0.13608674  0.79255497  0.44262662  1.0
  Ti  Ti1859  1  0.13608674  0.95922163  0.44262662  1.0
  Ti  Ti1860  1  0.22699583  0.12588830  0.44262662  1.0
  Ti  Ti1861  1  0.22699583  0.29255497  0.44262662  1.0
  Ti  Ti1862  1  0.22699583  0.45922163  0.44262662  1.0
  Ti  Ti1863  1  0.22699583  0.62588830  0.44262662  1.0
  Ti  Ti1864  1  0.22699583  0.79255497  0.44262662  1.0
  Ti  Ti1865  1  0.22699583  0.95922163  0.44262662  1.0
  Ti  Ti1866  1  0.31790493  0.12588830  0.44262662  1.0
  Ti  Ti1867  1  0.31790493  0.29255497  0.44262662  1.0
  Ti  Ti1868  1  0.31790493  0.45922163  0.44262662  1.0
  Ti  Ti1869  1  0.31790493  0.62588830  0.44262662  1.0
  Ti  Ti1870  1  0.31790493  0.79255497  0.44262662  1.0
  Ti  Ti1871  1  0.31790493  0.95922163  0.44262662  1.0
  Ti  Ti1872  1  0.40881402  0.12588830  0.44262662  1.0
  Ti  Ti1873  1  0.40881402  0.29255497  0.44262662  1.0
  Ti  Ti1874  1  0.40881402  0.45922163  0.44262662  1.0
  Ti  Ti1875  1  0.40881402  0.62588830  0.44262662  1.0
  Ti  Ti1876  1  0.40881402  0.79255497  0.44262662  1.0
  Ti  Ti1877  1  0.40881402  0.95922163  0.44262662  1.0
  Ti  Ti1878  1  0.49972311  0.12588830  0.44262662  1.0
  Ti  Ti1879  1  0.49972311  0.29255497  0.44262662  1.0
  Ti  Ti1880  1  0.49972311  0.45922163  0.44262662  1.0
  Ti  Ti1881  1  0.49972311  0.62588830  0.44262662  1.0
  Ti  Ti1882  1  0.49972311  0.79255497  0.44262662  1.0
  Ti  Ti1883  1  0.49972311  0.95922163  0.44262662  1.0
  Ti  Ti1884  1  0.59063220  0.12588830  0.44262662  1.0
  Ti  Ti1885  1  0.59063220  0.29255497  0.44262662  1.0
  Ti  Ti1886  1  0.59063220  0.45922163  0.44262662  1.0
  Ti  Ti1887  1  0.59063220  0.62588830  0.44262662  1.0
  Ti  Ti1888  1  0.59063220  0.79255497  0.44262662  1.0
  Ti  Ti1889  1  0.59063220  0.95922163  0.44262662  1.0
  Ti  Ti1890  1  0.68154129  0.12588830  0.44262662  1.0
  Ti  Ti1891  1  0.68154129  0.29255497  0.44262662  1.0
  Ti  Ti1892  1  0.68154129  0.45922163  0.44262662  1.0
  Ti  Ti1893  1  0.68154129  0.62588830  0.44262662  1.0
  Ti  Ti1894  1  0.68154129  0.79255497  0.44262662  1.0
  Ti  Ti1895  1  0.68154129  0.95922163  0.44262662  1.0
  Ti  Ti1896  1  0.77245038  0.12588830  0.44262662  1.0
  Ti  Ti1897  1  0.77245038  0.29255497  0.44262662  1.0
  Ti  Ti1898  1  0.77245038  0.45922163  0.44262662  1.0
  Ti  Ti1899  1  0.77245038  0.62588830  0.44262662  1.0
  Ti  Ti1900  1  0.77245038  0.79255497  0.44262662  1.0
  Ti  Ti1901  1  0.77245038  0.95922163  0.44262662  1.0
  Ti  Ti1902  1  0.86335947  0.12588830  0.44262662  1.0
  Ti  Ti1903  1  0.86335947  0.29255497  0.44262662  1.0
  Ti  Ti1904  1  0.86335947  0.45922163  0.44262662  1.0
  Ti  Ti1905  1  0.86335947  0.62588830  0.44262662  1.0
  Ti  Ti1906  1  0.86335947  0.79255497  0.44262662  1.0
  Ti  Ti1907  1  0.86335947  0.95922163  0.44262662  1.0
  Ti  Ti1908  1  0.95426856  0.12588830  0.44262662  1.0
  Ti  Ti1909  1  0.95426856  0.29255497  0.44262662  1.0
  Ti  Ti1910  1  0.95426856  0.45922163  0.44262662  1.0
  Ti  Ti1911  1  0.95426856  0.62588830  0.44262662  1.0
  Ti  Ti1912  1  0.95426856  0.79255497  0.44262662  1.0
  Ti  Ti1913  1  0.95426856  0.95922163  0.44262662  1.0
  Ti  Ti1914  1  0.09063220  0.13779306  0.37119805  1.0
  Ti  Ti1915  1  0.09063220  0.30445973  0.37119805  1.0
  Ti  Ti1916  1  0.09063220  0.47112639  0.37119805  1.0
  Ti  Ti1917  1  0.09063220  0.63779306  0.37119805  1.0
  Ti  Ti1918  1  0.09063220  0.80445973  0.37119805  1.0
  Ti  Ti1919  1  0.09063220  0.97112639  0.37119805  1.0
  Ti  Ti1920  1  0.18154129  0.13779306  0.37119805  1.0
  Ti  Ti1921  1  0.18154129  0.30445973  0.37119805  1.0
  Ti  Ti1922  1  0.18154129  0.47112639  0.37119805  1.0
  Ti  Ti1923  1  0.18154129  0.63779306  0.37119805  1.0
  Ti  Ti1924  1  0.18154129  0.80445973  0.37119805  1.0
  Ti  Ti1925  1  0.18154129  0.97112639  0.37119805  1.0
  Ti  Ti1926  1  0.27245038  0.13779306  0.37119805  1.0
  Ti  Ti1927  1  0.27245038  0.30445973  0.37119805  1.0
  Ti  Ti1928  1  0.27245038  0.47112639  0.37119805  1.0
  Ti  Ti1929  1  0.27245038  0.63779306  0.37119805  1.0
  Ti  Ti1930  1  0.27245038  0.80445973  0.37119805  1.0
  Ti  Ti1931  1  0.27245038  0.97112639  0.37119805  1.0
  Ti  Ti1932  1  0.36335947  0.13779306  0.37119805  1.0
  Ti  Ti1933  1  0.36335947  0.30445973  0.37119805  1.0
  Ti  Ti1934  1  0.36335947  0.47112639  0.37119805  1.0
  Ti  Ti1935  1  0.36335947  0.63779306  0.37119805  1.0
  Ti  Ti1936  1  0.36335947  0.80445973  0.37119805  1.0
  Ti  Ti1937  1  0.36335947  0.97112639  0.37119805  1.0
  Ti  Ti1938  1  0.45426856  0.13779306  0.37119805  1.0
  Ti  Ti1939  1  0.45426856  0.30445973  0.37119805  1.0
  Ti  Ti1940  1  0.45426856  0.47112639  0.37119805  1.0
  Ti  Ti1941  1  0.45426856  0.63779306  0.37119805  1.0
  Ti  Ti1942  1  0.45426856  0.80445973  0.37119805  1.0
  Ti  Ti1943  1  0.45426856  0.97112639  0.37119805  1.0
  Ti  Ti1944  1  0.54517765  0.13779306  0.37119805  1.0
  Ti  Ti1945  1  0.54517765  0.30445973  0.37119805  1.0
  Ti  Ti1946  1  0.54517765  0.47112639  0.37119805  1.0
  Ti  Ti1947  1  0.54517765  0.63779306  0.37119805  1.0
  Ti  Ti1948  1  0.54517765  0.80445973  0.37119805  1.0
  Ti  Ti1949  1  0.54517765  0.97112639  0.37119805  1.0
  Ti  Ti1950  1  0.63608674  0.13779306  0.37119805  1.0
  Ti  Ti1951  1  0.63608674  0.30445973  0.37119805  1.0
  Ti  Ti1952  1  0.63608674  0.47112639  0.37119805  1.0
  Ti  Ti1953  1  0.63608674  0.63779306  0.37119805  1.0
  Ti  Ti1954  1  0.63608674  0.80445973  0.37119805  1.0
  Ti  Ti1955  1  0.63608674  0.97112639  0.37119805  1.0
  Ti  Ti1956  1  0.72699584  0.13779306  0.37119805  1.0
  Ti  Ti1957  1  0.72699583  0.30445973  0.37119805  1.0
  Ti  Ti1958  1  0.72699583  0.47112639  0.37119805  1.0
  Ti  Ti1959  1  0.72699584  0.63779306  0.37119805  1.0
  Ti  Ti1960  1  0.72699584  0.80445973  0.37119805  1.0
  Ti  Ti1961  1  0.72699583  0.97112639  0.37119805  1.0
  Ti  Ti1962  1  0.81790493  0.13779306  0.37119805  1.0
  Ti  Ti1963  1  0.81790493  0.30445973  0.37119805  1.0
  Ti  Ti1964  1  0.81790493  0.47112639  0.37119805  1.0
  Ti  Ti1965  1  0.81790493  0.63779306  0.37119805  1.0
  Ti  Ti1966  1  0.81790493  0.80445973  0.37119805  1.0
  Ti  Ti1967  1  0.81790493  0.97112639  0.37119805  1.0
  Ti  Ti1968  1  0.90881402  0.13779306  0.37119805  1.0
  Ti  Ti1969  1  0.90881402  0.30445973  0.37119805  1.0
  Ti  Ti1970  1  0.90881402  0.47112639  0.37119805  1.0
  Ti  Ti1971  1  0.90881402  0.63779306  0.37119805  1.0
  Ti  Ti1972  1  0.90881402  0.80445973  0.37119805  1.0
  Ti  Ti1973  1  0.90881402  0.97112639  0.37119805  1.0
  Ti  Ti1974  1  0.99972311  0.13779306  0.37119805  1.0
  Ti  Ti1975  1  0.99972311  0.30445973  0.37119805  1.0
  Ti  Ti1976  1  0.99972311  0.47112639  0.37119805  1.0
  Ti  Ti1977  1  0.99972311  0.63779306  0.37119805  1.0
  Ti  Ti1978  1  0.99972311  0.80445973  0.37119805  1.0
  Ti  Ti1979  1  0.99972311  0.97112639  0.37119805  1.0
  Ti  Ti1980  1  0.02460185  0.15650275  0.40921633  1.0
  Ti  Ti1981  1  0.02460185  0.32316941  0.40921633  1.0
  Ti  Ti1982  1  0.02460185  0.48983608  0.40921633  1.0
  Ti  Ti1983  1  0.02460185  0.65650275  0.40921633  1.0
  Ti  Ti1984  1  0.02460185  0.82316941  0.40921633  1.0
  Ti  Ti1985  1  0.02460185  0.98983608  0.40921633  1.0
  Ti  Ti1986  1  0.11551094  0.15650275  0.40921633  1.0
  Ti  Ti1987  1  0.11551094  0.32316941  0.40921633  1.0
  Ti  Ti1988  1  0.11551094  0.48983608  0.40921633  1.0
  Ti  Ti1989  1  0.11551094  0.65650275  0.40921633  1.0
  Ti  Ti1990  1  0.11551094  0.82316941  0.40921633  1.0
  Ti  Ti1991  1  0.11551094  0.98983608  0.40921633  1.0
  Ti  Ti1992  1  0.20642003  0.15650275  0.40921633  1.0
  Ti  Ti1993  1  0.20642003  0.32316941  0.40921633  1.0
  Ti  Ti1994  1  0.20642003  0.48983608  0.40921633  1.0
  Ti  Ti1995  1  0.20642003  0.65650275  0.40921633  1.0
  Ti  Ti1996  1  0.20642003  0.82316941  0.40921633  1.0
  Ti  Ti1997  1  0.20642003  0.98983608  0.40921633  1.0
  Ti  Ti1998  1  0.29732912  0.15650275  0.40921633  1.0
  Ti  Ti1999  1  0.29732912  0.32316941  0.40921633  1.0
  Ti  Ti2000  1  0.29732912  0.48983608  0.40921633  1.0
  Ti  Ti2001  1  0.29732912  0.65650275  0.40921633  1.0
  Ti  Ti2002  1  0.29732912  0.82316941  0.40921633  1.0
  Ti  Ti2003  1  0.29732912  0.98983608  0.40921633  1.0
  Ti  Ti2004  1  0.38823821  0.15650275  0.40921633  1.0
  Ti  Ti2005  1  0.38823821  0.32316941  0.40921633  1.0
  Ti  Ti2006  1  0.38823821  0.48983608  0.40921633  1.0
  Ti  Ti2007  1  0.38823821  0.65650275  0.40921633  1.0
  Ti  Ti2008  1  0.38823821  0.82316941  0.40921633  1.0
  Ti  Ti2009  1  0.38823821  0.98983608  0.40921633  1.0
  Ti  Ti2010  1  0.47914730  0.15650275  0.40921633  1.0
  Ti  Ti2011  1  0.47914730  0.32316941  0.40921633  1.0
  Ti  Ti2012  1  0.47914730  0.48983608  0.40921633  1.0
  Ti  Ti2013  1  0.47914730  0.65650275  0.40921633  1.0
  Ti  Ti2014  1  0.47914730  0.82316941  0.40921633  1.0
  Ti  Ti2015  1  0.47914730  0.98983608  0.40921633  1.0
  Ti  Ti2016  1  0.57005639  0.15650275  0.40921633  1.0
  Ti  Ti2017  1  0.57005639  0.32316941  0.40921633  1.0
  Ti  Ti2018  1  0.57005639  0.48983608  0.40921633  1.0
  Ti  Ti2019  1  0.57005639  0.65650275  0.40921633  1.0
  Ti  Ti2020  1  0.57005639  0.82316941  0.40921633  1.0
  Ti  Ti2021  1  0.57005639  0.98983608  0.40921633  1.0
  Ti  Ti2022  1  0.66096549  0.15650275  0.40921633  1.0
  Ti  Ti2023  1  0.66096549  0.32316941  0.40921633  1.0
  Ti  Ti2024  1  0.66096549  0.48983608  0.40921633  1.0
  Ti  Ti2025  1  0.66096549  0.65650275  0.40921633  1.0
  Ti  Ti2026  1  0.66096549  0.82316941  0.40921633  1.0
  Ti  Ti2027  1  0.66096549  0.98983608  0.40921633  1.0
  Ti  Ti2028  1  0.75187458  0.15650275  0.40921633  1.0
  Ti  Ti2029  1  0.75187458  0.32316941  0.40921633  1.0
  Ti  Ti2030  1  0.75187458  0.48983608  0.40921633  1.0
  Ti  Ti2031  1  0.75187458  0.65650275  0.40921633  1.0
  Ti  Ti2032  1  0.75187458  0.82316941  0.40921633  1.0
  Ti  Ti2033  1  0.75187458  0.98983608  0.40921633  1.0
  Ti  Ti2034  1  0.84278367  0.15650275  0.40921633  1.0
  Ti  Ti2035  1  0.84278367  0.32316941  0.40921633  1.0
  Ti  Ti2036  1  0.84278367  0.48983608  0.40921633  1.0
  Ti  Ti2037  1  0.84278367  0.65650275  0.40921633  1.0
  Ti  Ti2038  1  0.84278367  0.82316941  0.40921633  1.0
  Ti  Ti2039  1  0.84278367  0.98983608  0.40921633  1.0
  Ti  Ti2040  1  0.93369276  0.15650275  0.40921633  1.0
  Ti  Ti2041  1  0.93369276  0.32316941  0.40921633  1.0
  Ti  Ti2042  1  0.93369276  0.48983608  0.40921633  1.0
  Ti  Ti2043  1  0.93369276  0.65650275  0.40921633  1.0
  Ti  Ti2044  1  0.93369276  0.82316941  0.40921633  1.0
  Ti  Ti2045  1  0.93369276  0.98983608  0.40921633  1.0
  Ti  Ti2046  1  0.07005639  0.14459798  0.48064490  1.0
  Ti  Ti2047  1  0.07005639  0.31126465  0.48064490  1.0
  Ti  Ti2048  1  0.07005639  0.47793132  0.48064490  1.0
  Ti  Ti2049  1  0.07005639  0.64459798  0.48064490  1.0
  Ti  Ti2050  1  0.07005639  0.81126465  0.48064490  1.0
  Ti  Ti2051  1  0.07005639  0.97793132  0.48064490  1.0
  Ti  Ti2052  1  0.16096549  0.14459798  0.48064490  1.0
  Ti  Ti2053  1  0.16096549  0.31126465  0.48064490  1.0
  Ti  Ti2054  1  0.16096549  0.47793132  0.48064490  1.0
  Ti  Ti2055  1  0.16096549  0.64459798  0.48064490  1.0
  Ti  Ti2056  1  0.16096549  0.81126465  0.48064490  1.0
  Ti  Ti2057  1  0.16096549  0.97793132  0.48064490  1.0
  Ti  Ti2058  1  0.25187458  0.14459798  0.48064490  1.0
  Ti  Ti2059  1  0.25187458  0.31126465  0.48064490  1.0
  Ti  Ti2060  1  0.25187458  0.47793132  0.48064490  1.0
  Ti  Ti2061  1  0.25187458  0.64459798  0.48064490  1.0
  Ti  Ti2062  1  0.25187458  0.81126465  0.48064490  1.0
  Ti  Ti2063  1  0.25187458  0.97793132  0.48064490  1.0
  Ti  Ti2064  1  0.34278367  0.14459798  0.48064490  1.0
  Ti  Ti2065  1  0.34278367  0.31126465  0.48064490  1.0
  Ti  Ti2066  1  0.34278367  0.47793132  0.48064490  1.0
  Ti  Ti2067  1  0.34278367  0.64459798  0.48064490  1.0
  Ti  Ti2068  1  0.34278367  0.81126465  0.48064490  1.0
  Ti  Ti2069  1  0.34278367  0.97793132  0.48064490  1.0
  Ti  Ti2070  1  0.43369276  0.14459798  0.48064490  1.0
  Ti  Ti2071  1  0.43369276  0.31126465  0.48064490  1.0
  Ti  Ti2072  1  0.43369276  0.47793132  0.48064490  1.0
  Ti  Ti2073  1  0.43369276  0.64459798  0.48064490  1.0
  Ti  Ti2074  1  0.43369276  0.81126465  0.48064490  1.0
  Ti  Ti2075  1  0.43369276  0.97793132  0.48064490  1.0
  Ti  Ti2076  1  0.52460185  0.14459798  0.48064490  1.0
  Ti  Ti2077  1  0.52460185  0.31126465  0.48064490  1.0
  Ti  Ti2078  1  0.52460185  0.47793132  0.48064490  1.0
  Ti  Ti2079  1  0.52460185  0.64459798  0.48064490  1.0
  Ti  Ti2080  1  0.52460185  0.81126465  0.48064490  1.0
  Ti  Ti2081  1  0.52460185  0.97793132  0.48064490  1.0
  Ti  Ti2082  1  0.61551094  0.14459798  0.48064490  1.0
  Ti  Ti2083  1  0.61551094  0.31126465  0.48064490  1.0
  Ti  Ti2084  1  0.61551094  0.47793132  0.48064490  1.0
  Ti  Ti2085  1  0.61551094  0.64459798  0.48064490  1.0
  Ti  Ti2086  1  0.61551094  0.81126465  0.48064490  1.0
  Ti  Ti2087  1  0.61551094  0.97793132  0.48064490  1.0
  Ti  Ti2088  1  0.70642003  0.14459798  0.48064490  1.0
  Ti  Ti2089  1  0.70642003  0.31126465  0.48064490  1.0
  Ti  Ti2090  1  0.70642003  0.47793132  0.48064490  1.0
  Ti  Ti2091  1  0.70642003  0.64459798  0.48064490  1.0
  Ti  Ti2092  1  0.70642003  0.81126465  0.48064490  1.0
  Ti  Ti2093  1  0.70642003  0.97793132  0.48064490  1.0
  Ti  Ti2094  1  0.79732912  0.14459798  0.48064490  1.0
  Ti  Ti2095  1  0.79732912  0.31126465  0.48064490  1.0
  Ti  Ti2096  1  0.79732912  0.47793132  0.48064490  1.0
  Ti  Ti2097  1  0.79732912  0.64459798  0.48064490  1.0
  Ti  Ti2098  1  0.79732912  0.81126465  0.48064490  1.0
  Ti  Ti2099  1  0.79732912  0.97793132  0.48064490  1.0
  Ti  Ti2100  1  0.88823821  0.14459798  0.48064490  1.0
  Ti  Ti2101  1  0.88823821  0.31126465  0.48064490  1.0
  Ti  Ti2102  1  0.88823821  0.47793132  0.48064490  1.0
  Ti  Ti2103  1  0.88823821  0.64459798  0.48064490  1.0
  Ti  Ti2104  1  0.88823821  0.81126465  0.48064490  1.0
  Ti  Ti2105  1  0.88823821  0.97793132  0.48064490  1.0
  Ti  Ti2106  1  0.97914730  0.14459798  0.48064490  1.0
  Ti  Ti2107  1  0.97914730  0.31126465  0.48064490  1.0
  Ti  Ti2108  1  0.97914730  0.47793132  0.48064490  1.0
  Ti  Ti2109  1  0.97914730  0.64459798  0.48064490  1.0
  Ti  Ti2110  1  0.97914730  0.81126465  0.48064490  1.0
  Ti  Ti2111  1  0.97914730  0.97793132  0.48064490  1.0
  Ti  Ti2112  1  0.03267081  0.04009109  0.41904937  1.0
  Ti  Ti2113  1  0.03267081  0.20675776  0.41904937  1.0
  Ti  Ti2114  1  0.03267081  0.37342443  0.41904937  1.0
  Ti  Ti2115  1  0.03267081  0.54009109  0.41904937  1.0
  Ti  Ti2116  1  0.03267081  0.70675776  0.41904937  1.0
  Ti  Ti2117  1  0.03267081  0.87342443  0.41904937  1.0
  Ti  Ti2118  1  0.12357990  0.04009109  0.41904937  1.0
  Ti  Ti2119  1  0.12357990  0.20675776  0.41904937  1.0
  Ti  Ti2120  1  0.12357990  0.37342443  0.41904937  1.0
  Ti  Ti2121  1  0.12357990  0.54009109  0.41904937  1.0
  Ti  Ti2122  1  0.12357990  0.70675776  0.41904937  1.0
  Ti  Ti2123  1  0.12357990  0.87342443  0.41904937  1.0
  Ti  Ti2124  1  0.21448899  0.04009109  0.41904937  1.0
  Ti  Ti2125  1  0.21448899  0.20675776  0.41904937  1.0
  Ti  Ti2126  1  0.21448899  0.37342443  0.41904937  1.0
  Ti  Ti2127  1  0.21448899  0.54009109  0.41904937  1.0
  Ti  Ti2128  1  0.21448899  0.70675776  0.41904937  1.0
  Ti  Ti2129  1  0.21448899  0.87342443  0.41904937  1.0
  Ti  Ti2130  1  0.30539808  0.04009109  0.41904937  1.0
  Ti  Ti2131  1  0.30539808  0.20675776  0.41904937  1.0
  Ti  Ti2132  1  0.30539808  0.37342443  0.41904937  1.0
  Ti  Ti2133  1  0.30539808  0.54009109  0.41904937  1.0
  Ti  Ti2134  1  0.30539808  0.70675776  0.41904937  1.0
  Ti  Ti2135  1  0.30539808  0.87342443  0.41904937  1.0
  Ti  Ti2136  1  0.39630717  0.04009109  0.41904937  1.0
  Ti  Ti2137  1  0.39630717  0.20675776  0.41904937  1.0
  Ti  Ti2138  1  0.39630717  0.37342443  0.41904937  1.0
  Ti  Ti2139  1  0.39630717  0.54009109  0.41904937  1.0
  Ti  Ti2140  1  0.39630717  0.70675776  0.41904937  1.0
  Ti  Ti2141  1  0.39630717  0.87342443  0.41904937  1.0
  Ti  Ti2142  1  0.48721626  0.04009109  0.41904937  1.0
  Ti  Ti2143  1  0.48721626  0.20675776  0.41904937  1.0
  Ti  Ti2144  1  0.48721626  0.37342443  0.41904937  1.0
  Ti  Ti2145  1  0.48721626  0.54009109  0.41904937  1.0
  Ti  Ti2146  1  0.48721626  0.70675776  0.41904937  1.0
  Ti  Ti2147  1  0.48721626  0.87342443  0.41904937  1.0
  Ti  Ti2148  1  0.57812535  0.04009109  0.41904937  1.0
  Ti  Ti2149  1  0.57812535  0.20675776  0.41904937  1.0
  Ti  Ti2150  1  0.57812535  0.37342443  0.41904937  1.0
  Ti  Ti2151  1  0.57812535  0.54009109  0.41904937  1.0
  Ti  Ti2152  1  0.57812535  0.70675776  0.41904937  1.0
  Ti  Ti2153  1  0.57812535  0.87342443  0.41904937  1.0
  Ti  Ti2154  1  0.66903444  0.04009109  0.41904937  1.0
  Ti  Ti2155  1  0.66903444  0.20675776  0.41904937  1.0
  Ti  Ti2156  1  0.66903444  0.37342443  0.41904937  1.0
  Ti  Ti2157  1  0.66903444  0.54009109  0.41904937  1.0
  Ti  Ti2158  1  0.66903444  0.70675776  0.41904937  1.0
  Ti  Ti2159  1  0.66903444  0.87342443  0.41904937  1.0
  Ti  Ti2160  1  0.75994354  0.04009109  0.41904937  1.0
  Ti  Ti2161  1  0.75994354  0.20675776  0.41904937  1.0
  Ti  Ti2162  1  0.75994354  0.37342443  0.41904937  1.0
  Ti  Ti2163  1  0.75994354  0.54009109  0.41904937  1.0
  Ti  Ti2164  1  0.75994354  0.70675776  0.41904937  1.0
  Ti  Ti2165  1  0.75994354  0.87342443  0.41904937  1.0
  Ti  Ti2166  1  0.85085263  0.04009109  0.41904937  1.0
  Ti  Ti2167  1  0.85085263  0.20675776  0.41904937  1.0
  Ti  Ti2168  1  0.85085263  0.37342443  0.41904937  1.0
  Ti  Ti2169  1  0.85085263  0.54009109  0.41904937  1.0
  Ti  Ti2170  1  0.85085263  0.70675776  0.41904937  1.0
  Ti  Ti2171  1  0.85085263  0.87342443  0.41904937  1.0
  Ti  Ti2172  1  0.94176172  0.04009109  0.41904937  1.0
  Ti  Ti2173  1  0.94176172  0.20675776  0.41904937  1.0
  Ti  Ti2174  1  0.94176172  0.37342443  0.41904937  1.0
  Ti  Ti2175  1  0.94176172  0.54009109  0.41904937  1.0
  Ti  Ti2176  1  0.94176172  0.70675776  0.41904937  1.0
  Ti  Ti2177  1  0.94176172  0.87342443  0.41904937  1.0
  Ti  Ti2178  1  0.07812535  0.02818633  0.49047794  1.0
  Ti  Ti2179  1  0.07812535  0.19485300  0.49047794  1.0
  Ti  Ti2180  1  0.07812535  0.36151966  0.49047794  1.0
  Ti  Ti2181  1  0.07812535  0.52818633  0.49047794  1.0
  Ti  Ti2182  1  0.07812535  0.69485300  0.49047794  1.0
  Ti  Ti2183  1  0.07812535  0.86151966  0.49047794  1.0
  Ti  Ti2184  1  0.16903444  0.02818633  0.49047794  1.0
  Ti  Ti2185  1  0.16903444  0.19485300  0.49047794  1.0
  Ti  Ti2186  1  0.16903444  0.36151966  0.49047794  1.0
  Ti  Ti2187  1  0.16903444  0.52818633  0.49047794  1.0
  Ti  Ti2188  1  0.16903444  0.69485300  0.49047794  1.0
  Ti  Ti2189  1  0.16903444  0.86151966  0.49047794  1.0
  Ti  Ti2190  1  0.25994354  0.02818633  0.49047794  1.0
  Ti  Ti2191  1  0.25994354  0.19485300  0.49047794  1.0
  Ti  Ti2192  1  0.25994354  0.36151966  0.49047794  1.0
  Ti  Ti2193  1  0.25994354  0.52818633  0.49047794  1.0
  Ti  Ti2194  1  0.25994354  0.69485300  0.49047794  1.0
  Ti  Ti2195  1  0.25994354  0.86151966  0.49047794  1.0
  Ti  Ti2196  1  0.35085263  0.02818633  0.49047794  1.0
  Ti  Ti2197  1  0.35085263  0.19485300  0.49047794  1.0
  Ti  Ti2198  1  0.35085263  0.36151966  0.49047794  1.0
  Ti  Ti2199  1  0.35085263  0.52818633  0.49047794  1.0
  Ti  Ti2200  1  0.35085263  0.69485300  0.49047794  1.0
  Ti  Ti2201  1  0.35085263  0.86151966  0.49047794  1.0
  Ti  Ti2202  1  0.44176172  0.02818633  0.49047794  1.0
  Ti  Ti2203  1  0.44176172  0.19485300  0.49047794  1.0
  Ti  Ti2204  1  0.44176172  0.36151966  0.49047794  1.0
  Ti  Ti2205  1  0.44176172  0.52818633  0.49047794  1.0
  Ti  Ti2206  1  0.44176172  0.69485300  0.49047794  1.0
  Ti  Ti2207  1  0.44176172  0.86151966  0.49047794  1.0
  Ti  Ti2208  1  0.53267081  0.02818633  0.49047794  1.0
  Ti  Ti2209  1  0.53267081  0.19485300  0.49047794  1.0
  Ti  Ti2210  1  0.53267081  0.36151966  0.49047794  1.0
  Ti  Ti2211  1  0.53267081  0.52818633  0.49047794  1.0
  Ti  Ti2212  1  0.53267081  0.69485300  0.49047794  1.0
  Ti  Ti2213  1  0.53267081  0.86151966  0.49047794  1.0
  Ti  Ti2214  1  0.62357990  0.02818633  0.49047794  1.0
  Ti  Ti2215  1  0.62357990  0.19485300  0.49047794  1.0
  Ti  Ti2216  1  0.62357990  0.36151966  0.49047794  1.0
  Ti  Ti2217  1  0.62357990  0.52818633  0.49047794  1.0
  Ti  Ti2218  1  0.62357990  0.69485300  0.49047794  1.0
  Ti  Ti2219  1  0.62357990  0.86151966  0.49047794  1.0
  Ti  Ti2220  1  0.71448899  0.02818633  0.49047794  1.0
  Ti  Ti2221  1  0.71448899  0.19485300  0.49047794  1.0
  Ti  Ti2222  1  0.71448899  0.36151966  0.49047794  1.0
  Ti  Ti2223  1  0.71448899  0.52818633  0.49047794  1.0
  Ti  Ti2224  1  0.71448899  0.69485300  0.49047794  1.0
  Ti  Ti2225  1  0.71448899  0.86151966  0.49047794  1.0
  Ti  Ti2226  1  0.80539808  0.02818633  0.49047794  1.0
  Ti  Ti2227  1  0.80539808  0.19485300  0.49047794  1.0
  Ti  Ti2228  1  0.80539808  0.36151966  0.49047794  1.0
  Ti  Ti2229  1  0.80539808  0.52818633  0.49047794  1.0
  Ti  Ti2230  1  0.80539808  0.69485300  0.49047794  1.0
  Ti  Ti2231  1  0.80539808  0.86151966  0.49047794  1.0
  Ti  Ti2232  1  0.89630717  0.02818633  0.49047794  1.0
  Ti  Ti2233  1  0.89630717  0.19485300  0.49047794  1.0
  Ti  Ti2234  1  0.89630717  0.36151966  0.49047794  1.0
  Ti  Ti2235  1  0.89630717  0.52818633  0.49047794  1.0
  Ti  Ti2236  1  0.89630717  0.69485300  0.49047794  1.0
  Ti  Ti2237  1  0.89630717  0.86151966  0.49047794  1.0
  Ti  Ti2238  1  0.98721626  0.02818633  0.49047794  1.0
  Ti  Ti2239  1  0.98721626  0.19485300  0.49047794  1.0
  Ti  Ti2240  1  0.98721626  0.36151966  0.49047794  1.0
  Ti  Ti2241  1  0.98721626  0.52818633  0.49047794  1.0
  Ti  Ti2242  1  0.98721626  0.69485300  0.49047794  1.0
  Ti  Ti2243  1  0.98721626  0.86151966  0.49047794  1.0
  Ti  Ti2244  1  0.08439766  0.08301647  0.43084509  1.0
  Ti  Ti2245  1  0.08439766  0.24968313  0.43084509  1.0
  Ti  Ti2246  1  0.08439766  0.41634980  0.43084509  1.0
  Ti  Ti2247  1  0.08439766  0.58301647  0.43084509  1.0
  Ti  Ti2248  1  0.08439766  0.74968313  0.43084509  1.0
  Ti  Ti2249  1  0.08439766  0.91634980  0.43084509  1.0
  Ti  Ti2250  1  0.17530675  0.08301647  0.43084509  1.0
  Ti  Ti2251  1  0.17530675  0.24968313  0.43084509  1.0
  Ti  Ti2252  1  0.17530675  0.41634980  0.43084509  1.0
  Ti  Ti2253  1  0.17530675  0.58301647  0.43084509  1.0
  Ti  Ti2254  1  0.17530675  0.74968313  0.43084509  1.0
  Ti  Ti2255  1  0.17530675  0.91634980  0.43084509  1.0
  Ti  Ti2256  1  0.26621584  0.08301647  0.43084509  1.0
  Ti  Ti2257  1  0.26621584  0.24968313  0.43084509  1.0
  Ti  Ti2258  1  0.26621584  0.41634980  0.43084509  1.0
  Ti  Ti2259  1  0.26621584  0.58301647  0.43084509  1.0
  Ti  Ti2260  1  0.26621584  0.74968313  0.43084509  1.0
  Ti  Ti2261  1  0.26621584  0.91634980  0.43084509  1.0
  Ti  Ti2262  1  0.35712493  0.08301647  0.43084509  1.0
  Ti  Ti2263  1  0.35712493  0.24968313  0.43084509  1.0
  Ti  Ti2264  1  0.35712493  0.41634980  0.43084509  1.0
  Ti  Ti2265  1  0.35712493  0.58301647  0.43084509  1.0
  Ti  Ti2266  1  0.35712493  0.74968313  0.43084509  1.0
  Ti  Ti2267  1  0.35712493  0.91634980  0.43084509  1.0
  Ti  Ti2268  1  0.44803402  0.08301647  0.43084509  1.0
  Ti  Ti2269  1  0.44803402  0.24968313  0.43084509  1.0
  Ti  Ti2270  1  0.44803402  0.41634980  0.43084509  1.0
  Ti  Ti2271  1  0.44803402  0.58301647  0.43084509  1.0
  Ti  Ti2272  1  0.44803402  0.74968313  0.43084509  1.0
  Ti  Ti2273  1  0.44803402  0.91634980  0.43084509  1.0
  Ti  Ti2274  1  0.53894311  0.08301647  0.43084509  1.0
  Ti  Ti2275  1  0.53894311  0.24968313  0.43084509  1.0
  Ti  Ti2276  1  0.53894311  0.41634980  0.43084509  1.0
  Ti  Ti2277  1  0.53894311  0.58301647  0.43084509  1.0
  Ti  Ti2278  1  0.53894311  0.74968313  0.43084509  1.0
  Ti  Ti2279  1  0.53894311  0.91634980  0.43084509  1.0
  Ti  Ti2280  1  0.62985220  0.08301647  0.43084509  1.0
  Ti  Ti2281  1  0.62985220  0.24968313  0.43084509  1.0
  Ti  Ti2282  1  0.62985220  0.41634980  0.43084509  1.0
  Ti  Ti2283  1  0.62985220  0.58301647  0.43084509  1.0
  Ti  Ti2284  1  0.62985220  0.74968313  0.43084509  1.0
  Ti  Ti2285  1  0.62985220  0.91634980  0.43084509  1.0
  Ti  Ti2286  1  0.72076129  0.08301647  0.43084509  1.0
  Ti  Ti2287  1  0.72076129  0.24968313  0.43084509  1.0
  Ti  Ti2288  1  0.72076129  0.41634980  0.43084509  1.0
  Ti  Ti2289  1  0.72076129  0.58301647  0.43084509  1.0
  Ti  Ti2290  1  0.72076129  0.74968313  0.43084509  1.0
  Ti  Ti2291  1  0.72076129  0.91634980  0.43084509  1.0
  Ti  Ti2292  1  0.81167038  0.08301647  0.43084509  1.0
  Ti  Ti2293  1  0.81167038  0.24968313  0.43084509  1.0
  Ti  Ti2294  1  0.81167038  0.41634980  0.43084509  1.0
  Ti  Ti2295  1  0.81167038  0.58301647  0.43084509  1.0
  Ti  Ti2296  1  0.81167038  0.74968313  0.43084509  1.0
  Ti  Ti2297  1  0.81167038  0.91634980  0.43084509  1.0
  Ti  Ti2298  1  0.90257947  0.08301647  0.43084509  1.0
  Ti  Ti2299  1  0.90257948  0.24968313  0.43084509  1.0
  Ti  Ti2300  1  0.90257948  0.41634980  0.43084509  1.0
  Ti  Ti2301  1  0.90257947  0.58301647  0.43084509  1.0
  Ti  Ti2302  1  0.90257948  0.74968313  0.43084509  1.0
  Ti  Ti2303  1  0.90257948  0.91634980  0.43084509  1.0
  Ti  Ti2304  1  0.99348857  0.08301647  0.43084509  1.0
  Ti  Ti2305  1  0.99348857  0.24968313  0.43084509  1.0
  Ti  Ti2306  1  0.99348857  0.41634980  0.43084509  1.0
  Ti  Ti2307  1  0.99348857  0.58301647  0.43084509  1.0
  Ti  Ti2308  1  0.99348857  0.74968313  0.43084509  1.0
  Ti  Ti2309  1  0.99348857  0.91634980  0.43084509  1.0
  Ti  Ti2310  1  0.03894311  0.09492123  0.35941652  1.0
  Ti  Ti2311  1  0.03894311  0.26158790  0.35941652  1.0
  Ti  Ti2312  1  0.03894311  0.42825456  0.35941652  1.0
  Ti  Ti2313  1  0.03894311  0.59492123  0.35941652  1.0
  Ti  Ti2314  1  0.03894311  0.76158790  0.35941652  1.0
  Ti  Ti2315  1  0.03894311  0.92825456  0.35941652  1.0
  Ti  Ti2316  1  0.12985220  0.09492123  0.35941652  1.0
  Ti  Ti2317  1  0.12985220  0.26158790  0.35941652  1.0
  Ti  Ti2318  1  0.12985220  0.42825456  0.35941652  1.0
  Ti  Ti2319  1  0.12985220  0.59492123  0.35941652  1.0
  Ti  Ti2320  1  0.12985220  0.76158790  0.35941652  1.0
  Ti  Ti2321  1  0.12985220  0.92825456  0.35941652  1.0
  Ti  Ti2322  1  0.22076129  0.09492123  0.35941652  1.0
  Ti  Ti2323  1  0.22076129  0.26158790  0.35941652  1.0
  Ti  Ti2324  1  0.22076129  0.42825456  0.35941652  1.0
  Ti  Ti2325  1  0.22076129  0.59492123  0.35941652  1.0
  Ti  Ti2326  1  0.22076129  0.76158790  0.35941652  1.0
  Ti  Ti2327  1  0.22076129  0.92825456  0.35941652  1.0
  Ti  Ti2328  1  0.31167038  0.09492123  0.35941652  1.0
  Ti  Ti2329  1  0.31167038  0.26158790  0.35941652  1.0
  Ti  Ti2330  1  0.31167038  0.42825456  0.35941652  1.0
  Ti  Ti2331  1  0.31167038  0.59492123  0.35941652  1.0
  Ti  Ti2332  1  0.31167038  0.76158790  0.35941652  1.0
  Ti  Ti2333  1  0.31167038  0.92825456  0.35941652  1.0
  Ti  Ti2334  1  0.40257948  0.09492123  0.35941652  1.0
  Ti  Ti2335  1  0.40257947  0.26158790  0.35941652  1.0
  Ti  Ti2336  1  0.40257948  0.42825456  0.35941652  1.0
  Ti  Ti2337  1  0.40257948  0.59492123  0.35941652  1.0
  Ti  Ti2338  1  0.40257947  0.76158790  0.35941652  1.0
  Ti  Ti2339  1  0.40257948  0.92825456  0.35941652  1.0
  Ti  Ti2340  1  0.49348857  0.09492123  0.35941652  1.0
  Ti  Ti2341  1  0.49348857  0.26158790  0.35941652  1.0
  Ti  Ti2342  1  0.49348857  0.42825456  0.35941652  1.0
  Ti  Ti2343  1  0.49348857  0.59492123  0.35941652  1.0
  Ti  Ti2344  1  0.49348857  0.76158790  0.35941652  1.0
  Ti  Ti2345  1  0.49348857  0.92825456  0.35941652  1.0
  Ti  Ti2346  1  0.58439766  0.09492123  0.35941652  1.0
  Ti  Ti2347  1  0.58439766  0.26158790  0.35941652  1.0
  Ti  Ti2348  1  0.58439766  0.42825456  0.35941652  1.0
  Ti  Ti2349  1  0.58439766  0.59492123  0.35941652  1.0
  Ti  Ti2350  1  0.58439766  0.76158790  0.35941652  1.0
  Ti  Ti2351  1  0.58439766  0.92825456  0.35941652  1.0
  Ti  Ti2352  1  0.67530675  0.09492123  0.35941652  1.0
  Ti  Ti2353  1  0.67530675  0.26158790  0.35941652  1.0
  Ti  Ti2354  1  0.67530675  0.42825456  0.35941652  1.0
  Ti  Ti2355  1  0.67530675  0.59492123  0.35941652  1.0
  Ti  Ti2356  1  0.67530675  0.76158790  0.35941652  1.0
  Ti  Ti2357  1  0.67530675  0.92825456  0.35941652  1.0
  Ti  Ti2358  1  0.76621584  0.09492123  0.35941652  1.0
  Ti  Ti2359  1  0.76621584  0.26158790  0.35941652  1.0
  Ti  Ti2360  1  0.76621584  0.42825456  0.35941652  1.0
  Ti  Ti2361  1  0.76621584  0.59492123  0.35941652  1.0
  Ti  Ti2362  1  0.76621584  0.76158790  0.35941652  1.0
  Ti  Ti2363  1  0.76621584  0.92825456  0.35941652  1.0
  Ti  Ti2364  1  0.85712493  0.09492123  0.35941652  1.0
  Ti  Ti2365  1  0.85712493  0.26158790  0.35941652  1.0
  Ti  Ti2366  1  0.85712493  0.42825456  0.35941652  1.0
  Ti  Ti2367  1  0.85712493  0.59492123  0.35941652  1.0
  Ti  Ti2368  1  0.85712493  0.76158790  0.35941652  1.0
  Ti  Ti2369  1  0.85712493  0.92825456  0.35941652  1.0
  Ti  Ti2370  1  0.94803402  0.09492123  0.35941652  1.0
  Ti  Ti2371  1  0.94803402  0.26158790  0.35941652  1.0
  Ti  Ti2372  1  0.94803402  0.42825456  0.35941652  1.0
  Ti  Ti2373  1  0.94803402  0.59492123  0.35941652  1.0
  Ti  Ti2374  1  0.94803402  0.76158790  0.35941652  1.0
  Ti  Ti2375  1  0.94803402  0.92825456  0.35941652  1.0
  Ti  Ti2376  1  0.02688851  0.14660237  0.48243057  1.0
  Ti  Ti2377  1  0.02688851  0.31326904  0.48243057  1.0
  Ti  Ti2378  1  0.02688851  0.47993571  0.48243057  1.0
  Ti  Ti2379  1  0.02688851  0.64660237  0.48243057  1.0
  Ti  Ti2380  1  0.02688851  0.81326904  0.48243057  1.0
  Ti  Ti2381  1  0.02688851  0.97993571  0.48243057  1.0
  Ti  Ti2382  1  0.11779760  0.14660237  0.48243057  1.0
  Ti  Ti2383  1  0.11779760  0.31326904  0.48243057  1.0
  Ti  Ti2384  1  0.11779760  0.47993571  0.48243057  1.0
  Ti  Ti2385  1  0.11779760  0.64660237  0.48243057  1.0
  Ti  Ti2386  1  0.11779760  0.81326904  0.48243057  1.0
  Ti  Ti2387  1  0.11779760  0.97993571  0.48243057  1.0
  Ti  Ti2388  1  0.20870669  0.14660237  0.48243057  1.0
  Ti  Ti2389  1  0.20870669  0.31326904  0.48243057  1.0
  Ti  Ti2390  1  0.20870669  0.47993571  0.48243057  1.0
  Ti  Ti2391  1  0.20870669  0.64660237  0.48243057  1.0
  Ti  Ti2392  1  0.20870669  0.81326904  0.48243057  1.0
  Ti  Ti2393  1  0.20870669  0.97993571  0.48243057  1.0
  Ti  Ti2394  1  0.29961578  0.14660237  0.48243057  1.0
  Ti  Ti2395  1  0.29961578  0.31326904  0.48243057  1.0
  Ti  Ti2396  1  0.29961578  0.47993571  0.48243057  1.0
  Ti  Ti2397  1  0.29961578  0.64660237  0.48243057  1.0
  Ti  Ti2398  1  0.29961578  0.81326904  0.48243057  1.0
  Ti  Ti2399  1  0.29961578  0.97993571  0.48243057  1.0
  Ti  Ti2400  1  0.39052487  0.14660237  0.48243057  1.0
  Ti  Ti2401  1  0.39052487  0.31326904  0.48243057  1.0
  Ti  Ti2402  1  0.39052487  0.47993571  0.48243057  1.0
  Ti  Ti2403  1  0.39052487  0.64660237  0.48243057  1.0
  Ti  Ti2404  1  0.39052487  0.81326904  0.48243057  1.0
  Ti  Ti2405  1  0.39052487  0.97993571  0.48243057  1.0
  Ti  Ti2406  1  0.48143396  0.14660237  0.48243057  1.0
  Ti  Ti2407  1  0.48143396  0.31326904  0.48243057  1.0
  Ti  Ti2408  1  0.48143396  0.47993571  0.48243057  1.0
  Ti  Ti2409  1  0.48143396  0.64660237  0.48243057  1.0
  Ti  Ti2410  1  0.48143396  0.81326904  0.48243057  1.0
  Ti  Ti2411  1  0.48143396  0.97993571  0.48243057  1.0
  Ti  Ti2412  1  0.57234305  0.14660237  0.48243057  1.0
  Ti  Ti2413  1  0.57234305  0.31326904  0.48243057  1.0
  Ti  Ti2414  1  0.57234305  0.47993571  0.48243057  1.0
  Ti  Ti2415  1  0.57234305  0.64660237  0.48243057  1.0
  Ti  Ti2416  1  0.57234305  0.81326904  0.48243057  1.0
  Ti  Ti2417  1  0.57234305  0.97993571  0.48243057  1.0
  Ti  Ti2418  1  0.66325214  0.14660237  0.48243057  1.0
  Ti  Ti2419  1  0.66325214  0.31326904  0.48243057  1.0
  Ti  Ti2420  1  0.66325214  0.47993571  0.48243057  1.0
  Ti  Ti2421  1  0.66325214  0.64660237  0.48243057  1.0
  Ti  Ti2422  1  0.66325214  0.81326904  0.48243057  1.0
  Ti  Ti2423  1  0.66325214  0.97993571  0.48243057  1.0
  Ti  Ti2424  1  0.75416123  0.14660237  0.48243057  1.0
  Ti  Ti2425  1  0.75416123  0.31326904  0.48243057  1.0
  Ti  Ti2426  1  0.75416123  0.47993571  0.48243057  1.0
  Ti  Ti2427  1  0.75416123  0.64660237  0.48243057  1.0
  Ti  Ti2428  1  0.75416123  0.81326904  0.48243057  1.0
  Ti  Ti2429  1  0.75416123  0.97993571  0.48243057  1.0
  Ti  Ti2430  1  0.84507032  0.14660237  0.48243057  1.0
  Ti  Ti2431  1  0.84507032  0.31326904  0.48243057  1.0
  Ti  Ti2432  1  0.84507032  0.47993571  0.48243057  1.0
  Ti  Ti2433  1  0.84507032  0.64660237  0.48243057  1.0
  Ti  Ti2434  1  0.84507032  0.81326904  0.48243057  1.0
  Ti  Ti2435  1  0.84507032  0.97993571  0.48243057  1.0
  Ti  Ti2436  1  0.93597941  0.14660237  0.48243057  1.0
  Ti  Ti2437  1  0.93597941  0.31326904  0.48243057  1.0
  Ti  Ti2438  1  0.93597941  0.47993571  0.48243057  1.0
  Ti  Ti2439  1  0.93597941  0.64660237  0.48243057  1.0
  Ti  Ti2440  1  0.93597941  0.81326904  0.48243057  1.0
  Ti  Ti2441  1  0.93597941  0.97993571  0.48243057  1.0
  Ti  Ti2442  1  0.07234305  0.15850713  0.41100199  1.0
  Ti  Ti2443  1  0.07234305  0.32517380  0.41100199  1.0
  Ti  Ti2444  1  0.07234305  0.49184047  0.41100199  1.0
  Ti  Ti2445  1  0.07234305  0.65850713  0.41100199  1.0
  Ti  Ti2446  1  0.07234305  0.82517380  0.41100199  1.0
  Ti  Ti2447  1  0.07234305  0.99184047  0.41100199  1.0
  Ti  Ti2448  1  0.16325214  0.15850713  0.41100199  1.0
  Ti  Ti2449  1  0.16325214  0.32517380  0.41100199  1.0
  Ti  Ti2450  1  0.16325214  0.49184047  0.41100199  1.0
  Ti  Ti2451  1  0.16325214  0.65850713  0.41100199  1.0
  Ti  Ti2452  1  0.16325214  0.82517380  0.41100199  1.0
  Ti  Ti2453  1  0.16325214  0.99184047  0.41100199  1.0
  Ti  Ti2454  1  0.25416123  0.15850713  0.41100199  1.0
  Ti  Ti2455  1  0.25416123  0.32517380  0.41100199  1.0
  Ti  Ti2456  1  0.25416123  0.49184047  0.41100199  1.0
  Ti  Ti2457  1  0.25416123  0.65850713  0.41100199  1.0
  Ti  Ti2458  1  0.25416123  0.82517380  0.41100199  1.0
  Ti  Ti2459  1  0.25416123  0.99184047  0.41100199  1.0
  Ti  Ti2460  1  0.34507032  0.15850713  0.41100199  1.0
  Ti  Ti2461  1  0.34507032  0.32517380  0.41100199  1.0
  Ti  Ti2462  1  0.34507032  0.49184047  0.41100199  1.0
  Ti  Ti2463  1  0.34507032  0.65850713  0.41100199  1.0
  Ti  Ti2464  1  0.34507032  0.82517380  0.41100199  1.0
  Ti  Ti2465  1  0.34507032  0.99184047  0.41100199  1.0
  Ti  Ti2466  1  0.43597941  0.15850713  0.41100199  1.0
  Ti  Ti2467  1  0.43597941  0.32517380  0.41100199  1.0
  Ti  Ti2468  1  0.43597941  0.49184047  0.41100199  1.0
  Ti  Ti2469  1  0.43597941  0.65850713  0.41100199  1.0
  Ti  Ti2470  1  0.43597941  0.82517380  0.41100199  1.0
  Ti  Ti2471  1  0.43597941  0.99184047  0.41100199  1.0
  Ti  Ti2472  1  0.52688851  0.15850713  0.41100199  1.0
  Ti  Ti2473  1  0.52688851  0.32517380  0.41100199  1.0
  Ti  Ti2474  1  0.52688851  0.49184047  0.41100199  1.0
  Ti  Ti2475  1  0.52688851  0.65850713  0.41100199  1.0
  Ti  Ti2476  1  0.52688851  0.82517380  0.41100199  1.0
  Ti  Ti2477  1  0.52688851  0.99184047  0.41100199  1.0
  Ti  Ti2478  1  0.61779760  0.15850713  0.41100199  1.0
  Ti  Ti2479  1  0.61779760  0.32517380  0.41100199  1.0
  Ti  Ti2480  1  0.61779760  0.49184047  0.41100199  1.0
  Ti  Ti2481  1  0.61779760  0.65850713  0.41100199  1.0
  Ti  Ti2482  1  0.61779760  0.82517380  0.41100199  1.0
  Ti  Ti2483  1  0.61779760  0.99184047  0.41100199  1.0
  Ti  Ti2484  1  0.70870669  0.15850713  0.41100199  1.0
  Ti  Ti2485  1  0.70870669  0.32517380  0.41100199  1.0
  Ti  Ti2486  1  0.70870669  0.49184047  0.41100199  1.0
  Ti  Ti2487  1  0.70870669  0.65850713  0.41100199  1.0
  Ti  Ti2488  1  0.70870669  0.82517380  0.41100199  1.0
  Ti  Ti2489  1  0.70870669  0.99184047  0.41100199  1.0
  Ti  Ti2490  1  0.79961578  0.15850713  0.41100199  1.0
  Ti  Ti2491  1  0.79961578  0.32517380  0.41100199  1.0
  Ti  Ti2492  1  0.79961578  0.49184047  0.41100199  1.0
  Ti  Ti2493  1  0.79961578  0.65850713  0.41100199  1.0
  Ti  Ti2494  1  0.79961578  0.82517380  0.41100199  1.0
  Ti  Ti2495  1  0.79961578  0.99184047  0.41100199  1.0
  Ti  Ti2496  1  0.89052487  0.15850713  0.41100199  1.0
  Ti  Ti2497  1  0.89052487  0.32517380  0.41100199  1.0
  Ti  Ti2498  1  0.89052487  0.49184047  0.41100199  1.0
  Ti  Ti2499  1  0.89052487  0.65850713  0.41100199  1.0
  Ti  Ti2500  1  0.89052487  0.82517380  0.41100199  1.0
  Ti  Ti2501  1  0.89052487  0.99184047  0.41100199  1.0
  Ti  Ti2502  1  0.98143396  0.15850713  0.41100199  1.0
  Ti  Ti2503  1  0.98143396  0.32517380  0.41100199  1.0
  Ti  Ti2504  1  0.98143396  0.49184047  0.41100199  1.0
  Ti  Ti2505  1  0.98143396  0.65850713  0.41100199  1.0
  Ti  Ti2506  1  0.98143396  0.82517380  0.41100199  1.0
  Ti  Ti2507  1  0.98143396  0.99184047  0.41100199  1.0
  Ti  Ti2508  1  0.05966095  0.05343717  0.46232846  1.0
  Ti  Ti2509  1  0.05966095  0.22010383  0.46232846  1.0
  Ti  Ti2510  1  0.05966095  0.38677050  0.46232846  1.0
  Ti  Ti2511  1  0.05966095  0.55343717  0.46232846  1.0
  Ti  Ti2512  1  0.05966095  0.72010383  0.46232846  1.0
  Ti  Ti2513  1  0.05966095  0.88677050  0.46232846  1.0
  Ti  Ti2514  1  0.15057004  0.05343717  0.46232846  1.0
  Ti  Ti2515  1  0.15057004  0.22010383  0.46232846  1.0
  Ti  Ti2516  1  0.15057004  0.38677050  0.46232846  1.0
  Ti  Ti2517  1  0.15057004  0.55343717  0.46232846  1.0
  Ti  Ti2518  1  0.15057004  0.72010383  0.46232846  1.0
  Ti  Ti2519  1  0.15057004  0.88677050  0.46232846  1.0
  Ti  Ti2520  1  0.24147913  0.05343717  0.46232846  1.0
  Ti  Ti2521  1  0.24147913  0.22010383  0.46232846  1.0
  Ti  Ti2522  1  0.24147913  0.38677050  0.46232846  1.0
  Ti  Ti2523  1  0.24147913  0.55343717  0.46232846  1.0
  Ti  Ti2524  1  0.24147913  0.72010383  0.46232846  1.0
  Ti  Ti2525  1  0.24147913  0.88677050  0.46232846  1.0
  Ti  Ti2526  1  0.33238822  0.05343717  0.46232846  1.0
  Ti  Ti2527  1  0.33238822  0.22010383  0.46232846  1.0
  Ti  Ti2528  1  0.33238822  0.38677050  0.46232846  1.0
  Ti  Ti2529  1  0.33238822  0.55343717  0.46232846  1.0
  Ti  Ti2530  1  0.33238822  0.72010383  0.46232846  1.0
  Ti  Ti2531  1  0.33238822  0.88677050  0.46232846  1.0
  Ti  Ti2532  1  0.42329731  0.05343717  0.46232846  1.0
  Ti  Ti2533  1  0.42329731  0.22010383  0.46232846  1.0
  Ti  Ti2534  1  0.42329731  0.38677050  0.46232846  1.0
  Ti  Ti2535  1  0.42329731  0.55343717  0.46232846  1.0
  Ti  Ti2536  1  0.42329731  0.72010383  0.46232846  1.0
  Ti  Ti2537  1  0.42329731  0.88677050  0.46232846  1.0
  Ti  Ti2538  1  0.51420640  0.05343717  0.46232846  1.0
  Ti  Ti2539  1  0.51420640  0.22010383  0.46232846  1.0
  Ti  Ti2540  1  0.51420640  0.38677050  0.46232846  1.0
  Ti  Ti2541  1  0.51420640  0.55343717  0.46232846  1.0
  Ti  Ti2542  1  0.51420640  0.72010383  0.46232846  1.0
  Ti  Ti2543  1  0.51420640  0.88677050  0.46232846  1.0
  Ti  Ti2544  1  0.60511550  0.05343717  0.46232846  1.0
  Ti  Ti2545  1  0.60511550  0.22010383  0.46232846  1.0
  Ti  Ti2546  1  0.60511550  0.38677050  0.46232846  1.0
  Ti  Ti2547  1  0.60511550  0.55343717  0.46232846  1.0
  Ti  Ti2548  1  0.60511550  0.72010383  0.46232846  1.0
  Ti  Ti2549  1  0.60511550  0.88677050  0.46232846  1.0
  Ti  Ti2550  1  0.69602459  0.05343717  0.46232846  1.0
  Ti  Ti2551  1  0.69602459  0.22010383  0.46232846  1.0
  Ti  Ti2552  1  0.69602459  0.38677050  0.46232846  1.0
  Ti  Ti2553  1  0.69602459  0.55343717  0.46232846  1.0
  Ti  Ti2554  1  0.69602459  0.72010383  0.46232846  1.0
  Ti  Ti2555  1  0.69602459  0.88677050  0.46232846  1.0
  Ti  Ti2556  1  0.78693368  0.05343717  0.46232846  1.0
  Ti  Ti2557  1  0.78693368  0.22010383  0.46232846  1.0
  Ti  Ti2558  1  0.78693368  0.38677050  0.46232846  1.0
  Ti  Ti2559  1  0.78693368  0.55343717  0.46232846  1.0
  Ti  Ti2560  1  0.78693368  0.72010383  0.46232846  1.0
  Ti  Ti2561  1  0.78693368  0.88677050  0.46232846  1.0
  Ti  Ti2562  1  0.87784277  0.05343717  0.46232846  1.0
  Ti  Ti2563  1  0.87784277  0.22010383  0.46232846  1.0
  Ti  Ti2564  1  0.87784277  0.38677050  0.46232846  1.0
  Ti  Ti2565  1  0.87784277  0.55343717  0.46232846  1.0
  Ti  Ti2566  1  0.87784277  0.72010383  0.46232846  1.0
  Ti  Ti2567  1  0.87784277  0.88677050  0.46232846  1.0
  Ti  Ti2568  1  0.96875186  0.05343717  0.46232846  1.0
  Ti  Ti2569  1  0.96875186  0.22010383  0.46232846  1.0
  Ti  Ti2570  1  0.96875186  0.38677050  0.46232846  1.0
  Ti  Ti2571  1  0.96875186  0.55343717  0.46232846  1.0
  Ti  Ti2572  1  0.96875186  0.72010383  0.46232846  1.0
  Ti  Ti2573  1  0.96875186  0.88677050  0.46232846  1.0
  Ti  Ti2574  1  0.01420640  0.06534193  0.39089989  1.0
  Ti  Ti2575  1  0.01420640  0.23200860  0.39089989  1.0
  Ti  Ti2576  1  0.01420640  0.39867526  0.39089989  1.0
  Ti  Ti2577  1  0.01420640  0.56534193  0.39089989  1.0
  Ti  Ti2578  1  0.01420640  0.73200859  0.39089989  1.0
  Ti  Ti2579  1  0.01420640  0.89867526  0.39089989  1.0
  Ti  Ti2580  1  0.10511550  0.06534193  0.39089989  1.0
  Ti  Ti2581  1  0.10511550  0.23200860  0.39089989  1.0
  Ti  Ti2582  1  0.10511550  0.39867526  0.39089989  1.0
  Ti  Ti2583  1  0.10511550  0.56534193  0.39089989  1.0
  Ti  Ti2584  1  0.10511550  0.73200859  0.39089989  1.0
  Ti  Ti2585  1  0.10511550  0.89867526  0.39089989  1.0
  Ti  Ti2586  1  0.19602459  0.06534193  0.39089989  1.0
  Ti  Ti2587  1  0.19602459  0.23200860  0.39089989  1.0
  Ti  Ti2588  1  0.19602459  0.39867526  0.39089989  1.0
  Ti  Ti2589  1  0.19602459  0.56534193  0.39089989  1.0
  Ti  Ti2590  1  0.19602459  0.73200859  0.39089989  1.0
  Ti  Ti2591  1  0.19602459  0.89867526  0.39089989  1.0
  Ti  Ti2592  1  0.28693368  0.06534193  0.39089989  1.0
  Ti  Ti2593  1  0.28693368  0.23200860  0.39089989  1.0
  Ti  Ti2594  1  0.28693368  0.39867526  0.39089989  1.0
  Ti  Ti2595  1  0.28693368  0.56534193  0.39089989  1.0
  Ti  Ti2596  1  0.28693368  0.73200859  0.39089989  1.0
  Ti  Ti2597  1  0.28693368  0.89867526  0.39089989  1.0
  Ti  Ti2598  1  0.37784277  0.06534193  0.39089989  1.0
  Ti  Ti2599  1  0.37784277  0.23200860  0.39089989  1.0
  Ti  Ti2600  1  0.37784277  0.39867526  0.39089989  1.0
  Ti  Ti2601  1  0.37784277  0.56534193  0.39089989  1.0
  Ti  Ti2602  1  0.37784277  0.73200859  0.39089989  1.0
  Ti  Ti2603  1  0.37784277  0.89867526  0.39089989  1.0
  Ti  Ti2604  1  0.46875186  0.06534193  0.39089989  1.0
  Ti  Ti2605  1  0.46875186  0.23200860  0.39089989  1.0
  Ti  Ti2606  1  0.46875186  0.39867526  0.39089989  1.0
  Ti  Ti2607  1  0.46875186  0.56534193  0.39089989  1.0
  Ti  Ti2608  1  0.46875186  0.73200859  0.39089989  1.0
  Ti  Ti2609  1  0.46875186  0.89867526  0.39089989  1.0
  Ti  Ti2610  1  0.55966095  0.06534193  0.39089989  1.0
  Ti  Ti2611  1  0.55966095  0.23200860  0.39089989  1.0
  Ti  Ti2612  1  0.55966095  0.39867526  0.39089989  1.0
  Ti  Ti2613  1  0.55966095  0.56534193  0.39089989  1.0
  Ti  Ti2614  1  0.55966095  0.73200859  0.39089989  1.0
  Ti  Ti2615  1  0.55966095  0.89867526  0.39089989  1.0
  Ti  Ti2616  1  0.65057004  0.06534193  0.39089989  1.0
  Ti  Ti2617  1  0.65057004  0.23200860  0.39089989  1.0
  Ti  Ti2618  1  0.65057004  0.39867526  0.39089989  1.0
  Ti  Ti2619  1  0.65057004  0.56534193  0.39089989  1.0
  Ti  Ti2620  1  0.65057004  0.73200859  0.39089989  1.0
  Ti  Ti2621  1  0.65057004  0.89867526  0.39089989  1.0
  Ti  Ti2622  1  0.74147913  0.06534193  0.39089989  1.0
  Ti  Ti2623  1  0.74147913  0.23200860  0.39089989  1.0
  Ti  Ti2624  1  0.74147913  0.39867526  0.39089989  1.0
  Ti  Ti2625  1  0.74147913  0.56534193  0.39089989  1.0
  Ti  Ti2626  1  0.74147913  0.73200859  0.39089989  1.0
  Ti  Ti2627  1  0.74147913  0.89867526  0.39089989  1.0
  Ti  Ti2628  1  0.83238822  0.06534193  0.39089989  1.0
  Ti  Ti2629  1  0.83238822  0.23200860  0.39089989  1.0
  Ti  Ti2630  1  0.83238822  0.39867526  0.39089989  1.0
  Ti  Ti2631  1  0.83238822  0.56534193  0.39089989  1.0
  Ti  Ti2632  1  0.83238822  0.73200859  0.39089989  1.0
  Ti  Ti2633  1  0.83238822  0.89867526  0.39089989  1.0
  Ti  Ti2634  1  0.92329731  0.06534193  0.39089989  1.0
  Ti  Ti2635  1  0.92329731  0.23200860  0.39089989  1.0
  Ti  Ti2636  1  0.92329731  0.39867526  0.39089989  1.0
  Ti  Ti2637  1  0.92329731  0.56534193  0.39089989  1.0
  Ti  Ti2638  1  0.92329731  0.73200859  0.39089989  1.0
  Ti  Ti2639  1  0.92329731  0.89867526  0.39089989  1.0
  Ti  Ti2640  1  0.06363488  0.10062491  0.47079287  1.0
  Ti  Ti2641  1  0.06363488  0.26729158  0.47079287  1.0
  Ti  Ti2642  1  0.06363488  0.43395825  0.47079287  1.0
  Ti  Ti2643  1  0.06363488  0.60062491  0.47079287  1.0
  Ti  Ti2644  1  0.06363488  0.76729158  0.47079287  1.0
  Ti  Ti2645  1  0.06363488  0.93395825  0.47079287  1.0
  Ti  Ti2646  1  0.15454397  0.10062491  0.47079287  1.0
  Ti  Ti2647  1  0.15454397  0.26729158  0.47079287  1.0
  Ti  Ti2648  1  0.15454397  0.43395825  0.47079287  1.0
  Ti  Ti2649  1  0.15454397  0.60062491  0.47079287  1.0
  Ti  Ti2650  1  0.15454397  0.76729158  0.47079287  1.0
  Ti  Ti2651  1  0.15454397  0.93395825  0.47079287  1.0
  Ti  Ti2652  1  0.24545306  0.10062491  0.47079287  1.0
  Ti  Ti2653  1  0.24545306  0.26729158  0.47079287  1.0
  Ti  Ti2654  1  0.24545306  0.43395825  0.47079287  1.0
  Ti  Ti2655  1  0.24545306  0.60062491  0.47079287  1.0
  Ti  Ti2656  1  0.24545306  0.76729158  0.47079287  1.0
  Ti  Ti2657  1  0.24545306  0.93395825  0.47079287  1.0
  Ti  Ti2658  1  0.33636215  0.10062491  0.47079287  1.0
  Ti  Ti2659  1  0.33636215  0.26729158  0.47079287  1.0
  Ti  Ti2660  1  0.33636215  0.43395825  0.47079287  1.0
  Ti  Ti2661  1  0.33636215  0.60062491  0.47079287  1.0
  Ti  Ti2662  1  0.33636215  0.76729158  0.47079287  1.0
  Ti  Ti2663  1  0.33636215  0.93395825  0.47079287  1.0
  Ti  Ti2664  1  0.42727124  0.10062491  0.47079287  1.0
  Ti  Ti2665  1  0.42727124  0.26729158  0.47079287  1.0
  Ti  Ti2666  1  0.42727124  0.43395825  0.47079287  1.0
  Ti  Ti2667  1  0.42727124  0.60062491  0.47079287  1.0
  Ti  Ti2668  1  0.42727124  0.76729158  0.47079287  1.0
  Ti  Ti2669  1  0.42727124  0.93395825  0.47079287  1.0
  Ti  Ti2670  1  0.51818033  0.10062491  0.47079287  1.0
  Ti  Ti2671  1  0.51818033  0.26729158  0.47079287  1.0
  Ti  Ti2672  1  0.51818033  0.43395825  0.47079287  1.0
  Ti  Ti2673  1  0.51818033  0.60062491  0.47079287  1.0
  Ti  Ti2674  1  0.51818033  0.76729158  0.47079287  1.0
  Ti  Ti2675  1  0.51818033  0.93395825  0.47079287  1.0
  Ti  Ti2676  1  0.60908942  0.10062491  0.47079287  1.0
  Ti  Ti2677  1  0.60908942  0.26729158  0.47079287  1.0
  Ti  Ti2678  1  0.60908942  0.43395825  0.47079287  1.0
  Ti  Ti2679  1  0.60908942  0.60062491  0.47079287  1.0
  Ti  Ti2680  1  0.60908942  0.76729158  0.47079287  1.0
  Ti  Ti2681  1  0.60908942  0.93395825  0.47079287  1.0
  Ti  Ti2682  1  0.69999851  0.10062491  0.47079287  1.0
  Ti  Ti2683  1  0.69999851  0.26729158  0.47079287  1.0
  Ti  Ti2684  1  0.69999851  0.43395825  0.47079287  1.0
  Ti  Ti2685  1  0.69999851  0.60062491  0.47079287  1.0
  Ti  Ti2686  1  0.69999851  0.76729158  0.47079287  1.0
  Ti  Ti2687  1  0.69999851  0.93395825  0.47079287  1.0
  Ti  Ti2688  1  0.79090761  0.10062491  0.47079287  1.0
  Ti  Ti2689  1  0.79090761  0.26729158  0.47079287  1.0
  Ti  Ti2690  1  0.79090761  0.43395825  0.47079287  1.0
  Ti  Ti2691  1  0.79090761  0.60062491  0.47079287  1.0
  Ti  Ti2692  1  0.79090761  0.76729158  0.47079287  1.0
  Ti  Ti2693  1  0.79090761  0.93395825  0.47079287  1.0
  Ti  Ti2694  1  0.88181670  0.10062491  0.47079287  1.0
  Ti  Ti2695  1  0.88181670  0.26729158  0.47079287  1.0
  Ti  Ti2696  1  0.88181670  0.43395825  0.47079287  1.0
  Ti  Ti2697  1  0.88181670  0.60062491  0.47079287  1.0
  Ti  Ti2698  1  0.88181670  0.76729158  0.47079287  1.0
  Ti  Ti2699  1  0.88181670  0.93395825  0.47079287  1.0
  Ti  Ti2700  1  0.97272579  0.10062491  0.47079287  1.0
  Ti  Ti2701  1  0.97272579  0.26729158  0.47079287  1.0
  Ti  Ti2702  1  0.97272579  0.43395825  0.47079287  1.0
  Ti  Ti2703  1  0.97272579  0.60062491  0.47079287  1.0
  Ti  Ti2704  1  0.97272579  0.76729158  0.47079287  1.0
  Ti  Ti2705  1  0.97272579  0.93395825  0.47079287  1.0
  Ti  Ti2706  1  0.01818033  0.11252968  0.39936430  1.0
  Ti  Ti2707  1  0.01818033  0.27919634  0.39936430  1.0
  Ti  Ti2708  1  0.01818033  0.44586301  0.39936430  1.0
  Ti  Ti2709  1  0.01818033  0.61252967  0.39936430  1.0
  Ti  Ti2710  1  0.01818033  0.77919634  0.39936430  1.0
  Ti  Ti2711  1  0.01818033  0.94586301  0.39936430  1.0
  Ti  Ti2712  1  0.10908942  0.11252968  0.39936430  1.0
  Ti  Ti2713  1  0.10908942  0.27919634  0.39936430  1.0
  Ti  Ti2714  1  0.10908942  0.44586301  0.39936430  1.0
  Ti  Ti2715  1  0.10908942  0.61252967  0.39936430  1.0
  Ti  Ti2716  1  0.10908942  0.77919634  0.39936430  1.0
  Ti  Ti2717  1  0.10908942  0.94586301  0.39936430  1.0
  Ti  Ti2718  1  0.19999851  0.11252968  0.39936430  1.0
  Ti  Ti2719  1  0.19999851  0.27919634  0.39936430  1.0
  Ti  Ti2720  1  0.19999851  0.44586301  0.39936430  1.0
  Ti  Ti2721  1  0.19999851  0.61252967  0.39936430  1.0
  Ti  Ti2722  1  0.19999851  0.77919634  0.39936430  1.0
  Ti  Ti2723  1  0.19999851  0.94586301  0.39936430  1.0
  Ti  Ti2724  1  0.29090761  0.11252968  0.39936430  1.0
  Ti  Ti2725  1  0.29090761  0.27919634  0.39936430  1.0
  Ti  Ti2726  1  0.29090761  0.44586301  0.39936430  1.0
  Ti  Ti2727  1  0.29090761  0.61252967  0.39936430  1.0
  Ti  Ti2728  1  0.29090761  0.77919634  0.39936430  1.0
  Ti  Ti2729  1  0.29090761  0.94586301  0.39936430  1.0
  Ti  Ti2730  1  0.38181670  0.11252968  0.39936430  1.0
  Ti  Ti2731  1  0.38181670  0.27919634  0.39936430  1.0
  Ti  Ti2732  1  0.38181670  0.44586301  0.39936430  1.0
  Ti  Ti2733  1  0.38181670  0.61252967  0.39936430  1.0
  Ti  Ti2734  1  0.38181670  0.77919634  0.39936430  1.0
  Ti  Ti2735  1  0.38181670  0.94586301  0.39936430  1.0
  Ti  Ti2736  1  0.47272579  0.11252968  0.39936430  1.0
  Ti  Ti2737  1  0.47272579  0.27919634  0.39936430  1.0
  Ti  Ti2738  1  0.47272579  0.44586301  0.39936430  1.0
  Ti  Ti2739  1  0.47272579  0.61252967  0.39936430  1.0
  Ti  Ti2740  1  0.47272579  0.77919634  0.39936430  1.0
  Ti  Ti2741  1  0.47272579  0.94586301  0.39936430  1.0
  Ti  Ti2742  1  0.56363488  0.11252968  0.39936430  1.0
  Ti  Ti2743  1  0.56363488  0.27919634  0.39936430  1.0
  Ti  Ti2744  1  0.56363488  0.44586301  0.39936430  1.0
  Ti  Ti2745  1  0.56363488  0.61252967  0.39936430  1.0
  Ti  Ti2746  1  0.56363488  0.77919634  0.39936430  1.0
  Ti  Ti2747  1  0.56363488  0.94586301  0.39936430  1.0
  Ti  Ti2748  1  0.65454397  0.11252968  0.39936430  1.0
  Ti  Ti2749  1  0.65454397  0.27919634  0.39936430  1.0
  Ti  Ti2750  1  0.65454397  0.44586301  0.39936430  1.0
  Ti  Ti2751  1  0.65454397  0.61252967  0.39936430  1.0
  Ti  Ti2752  1  0.65454397  0.77919634  0.39936430  1.0
  Ti  Ti2753  1  0.65454397  0.94586301  0.39936430  1.0
  Ti  Ti2754  1  0.74545306  0.11252968  0.39936430  1.0
  Ti  Ti2755  1  0.74545306  0.27919634  0.39936430  1.0
  Ti  Ti2756  1  0.74545306  0.44586301  0.39936430  1.0
  Ti  Ti2757  1  0.74545306  0.61252967  0.39936430  1.0
  Ti  Ti2758  1  0.74545306  0.77919634  0.39936430  1.0
  Ti  Ti2759  1  0.74545306  0.94586301  0.39936430  1.0
  Ti  Ti2760  1  0.83636215  0.11252968  0.39936430  1.0
  Ti  Ti2761  1  0.83636215  0.27919634  0.39936430  1.0
  Ti  Ti2762  1  0.83636215  0.44586301  0.39936430  1.0
  Ti  Ti2763  1  0.83636215  0.61252967  0.39936430  1.0
  Ti  Ti2764  1  0.83636215  0.77919634  0.39936430  1.0
  Ti  Ti2765  1  0.83636215  0.94586301  0.39936430  1.0
  Ti  Ti2766  1  0.92727124  0.11252968  0.39936430  1.0
  Ti  Ti2767  1  0.92727124  0.27919634  0.39936430  1.0
  Ti  Ti2768  1  0.92727124  0.44586301  0.39936430  1.0
  Ti  Ti2769  1  0.92727124  0.61252967  0.39936430  1.0
  Ti  Ti2770  1  0.92727124  0.77919634  0.39936430  1.0
  Ti  Ti2771  1  0.92727124  0.94586301  0.39936430  1.0
  Ti  Ti2772  1  0.05329848  0.00950434  0.45248860  1.0
  Ti  Ti2773  1  0.05329848  0.17617101  0.45248860  1.0
  Ti  Ti2774  1  0.05329848  0.34283768  0.45248860  1.0
  Ti  Ti2775  1  0.05329848  0.50950434  0.45248860  1.0
  Ti  Ti2776  1  0.05329848  0.67617101  0.45248860  1.0
  Ti  Ti2777  1  0.05329848  0.84283768  0.45248860  1.0
  Ti  Ti2778  1  0.14420758  0.00950434  0.45248860  1.0
  Ti  Ti2779  1  0.14420758  0.17617101  0.45248860  1.0
  Ti  Ti2780  1  0.14420758  0.34283768  0.45248860  1.0
  Ti  Ti2781  1  0.14420758  0.50950434  0.45248860  1.0
  Ti  Ti2782  1  0.14420758  0.67617101  0.45248860  1.0
  Ti  Ti2783  1  0.14420758  0.84283768  0.45248860  1.0
  Ti  Ti2784  1  0.23511667  0.00950434  0.45248860  1.0
  Ti  Ti2785  1  0.23511667  0.17617101  0.45248860  1.0
  Ti  Ti2786  1  0.23511667  0.34283768  0.45248860  1.0
  Ti  Ti2787  1  0.23511667  0.50950434  0.45248860  1.0
  Ti  Ti2788  1  0.23511667  0.67617101  0.45248860  1.0
  Ti  Ti2789  1  0.23511667  0.84283768  0.45248860  1.0
  Ti  Ti2790  1  0.32602576  0.00950434  0.45248860  1.0
  Ti  Ti2791  1  0.32602576  0.17617101  0.45248860  1.0
  Ti  Ti2792  1  0.32602576  0.34283768  0.45248860  1.0
  Ti  Ti2793  1  0.32602576  0.50950434  0.45248860  1.0
  Ti  Ti2794  1  0.32602576  0.67617101  0.45248860  1.0
  Ti  Ti2795  1  0.32602576  0.84283768  0.45248860  1.0
  Ti  Ti2796  1  0.41693485  0.00950434  0.45248860  1.0
  Ti  Ti2797  1  0.41693485  0.17617101  0.45248860  1.0
  Ti  Ti2798  1  0.41693485  0.34283768  0.45248860  1.0
  Ti  Ti2799  1  0.41693485  0.50950434  0.45248860  1.0
  Ti  Ti2800  1  0.41693485  0.67617101  0.45248860  1.0
  Ti  Ti2801  1  0.41693485  0.84283768  0.45248860  1.0
  Ti  Ti2802  1  0.50784394  0.00950434  0.45248860  1.0
  Ti  Ti2803  1  0.50784394  0.17617101  0.45248860  1.0
  Ti  Ti2804  1  0.50784394  0.34283768  0.45248860  1.0
  Ti  Ti2805  1  0.50784394  0.50950434  0.45248860  1.0
  Ti  Ti2806  1  0.50784394  0.67617101  0.45248860  1.0
  Ti  Ti2807  1  0.50784394  0.84283768  0.45248860  1.0
  Ti  Ti2808  1  0.59875303  0.00950434  0.45248860  1.0
  Ti  Ti2809  1  0.59875303  0.17617101  0.45248860  1.0
  Ti  Ti2810  1  0.59875303  0.34283768  0.45248860  1.0
  Ti  Ti2811  1  0.59875303  0.50950434  0.45248860  1.0
  Ti  Ti2812  1  0.59875303  0.67617101  0.45248860  1.0
  Ti  Ti2813  1  0.59875303  0.84283768  0.45248860  1.0
  Ti  Ti2814  1  0.68966212  0.00950434  0.45248860  1.0
  Ti  Ti2815  1  0.68966212  0.17617101  0.45248860  1.0
  Ti  Ti2816  1  0.68966212  0.34283768  0.45248860  1.0
  Ti  Ti2817  1  0.68966212  0.50950434  0.45248860  1.0
  Ti  Ti2818  1  0.68966212  0.67617101  0.45248860  1.0
  Ti  Ti2819  1  0.68966212  0.84283768  0.45248860  1.0
  Ti  Ti2820  1  0.78057121  0.00950434  0.45248860  1.0
  Ti  Ti2821  1  0.78057121  0.17617101  0.45248860  1.0
  Ti  Ti2822  1  0.78057121  0.34283768  0.45248860  1.0
  Ti  Ti2823  1  0.78057121  0.50950434  0.45248860  1.0
  Ti  Ti2824  1  0.78057121  0.67617101  0.45248860  1.0
  Ti  Ti2825  1  0.78057121  0.84283768  0.45248860  1.0
  Ti  Ti2826  1  0.87148030  0.00950434  0.45248860  1.0
  Ti  Ti2827  1  0.87148030  0.17617101  0.45248860  1.0
  Ti  Ti2828  1  0.87148030  0.34283768  0.45248860  1.0
  Ti  Ti2829  1  0.87148030  0.50950434  0.45248860  1.0
  Ti  Ti2830  1  0.87148030  0.67617101  0.45248860  1.0
  Ti  Ti2831  1  0.87148030  0.84283768  0.45248860  1.0
  Ti  Ti2832  1  0.96238939  0.00950434  0.45248860  1.0
  Ti  Ti2833  1  0.96238939  0.17617101  0.45248860  1.0
  Ti  Ti2834  1  0.96238939  0.34283768  0.45248860  1.0
  Ti  Ti2835  1  0.96238939  0.50950434  0.45248860  1.0
  Ti  Ti2836  1  0.96238939  0.67617101  0.45248860  1.0
  Ti  Ti2837  1  0.96238939  0.84283768  0.45248860  1.0
  Ti  Ti2838  1  0.00784394  0.02140911  0.38106003  1.0
  Ti  Ti2839  1  0.00784394  0.18807577  0.38106003  1.0
  Ti  Ti2840  1  0.00784394  0.35474244  0.38106003  1.0
  Ti  Ti2841  1  0.00784394  0.52140911  0.38106003  1.0
  Ti  Ti2842  1  0.00784394  0.68807577  0.38106003  1.0
  Ti  Ti2843  1  0.00784394  0.85474244  0.38106003  1.0
  Ti  Ti2844  1  0.09875303  0.02140911  0.38106003  1.0
  Ti  Ti2845  1  0.09875303  0.18807577  0.38106003  1.0
  Ti  Ti2846  1  0.09875303  0.35474244  0.38106003  1.0
  Ti  Ti2847  1  0.09875303  0.52140911  0.38106003  1.0
  Ti  Ti2848  1  0.09875303  0.68807577  0.38106003  1.0
  Ti  Ti2849  1  0.09875303  0.85474244  0.38106003  1.0
  Ti  Ti2850  1  0.18966212  0.02140911  0.38106003  1.0
  Ti  Ti2851  1  0.18966212  0.18807577  0.38106003  1.0
  Ti  Ti2852  1  0.18966212  0.35474244  0.38106003  1.0
  Ti  Ti2853  1  0.18966212  0.52140911  0.38106003  1.0
  Ti  Ti2854  1  0.18966212  0.68807577  0.38106003  1.0
  Ti  Ti2855  1  0.18966212  0.85474244  0.38106003  1.0
  Ti  Ti2856  1  0.28057121  0.02140911  0.38106003  1.0
  Ti  Ti2857  1  0.28057121  0.18807577  0.38106003  1.0
  Ti  Ti2858  1  0.28057121  0.35474244  0.38106003  1.0
  Ti  Ti2859  1  0.28057121  0.52140911  0.38106003  1.0
  Ti  Ti2860  1  0.28057121  0.68807577  0.38106003  1.0
  Ti  Ti2861  1  0.28057121  0.85474244  0.38106003  1.0
  Ti  Ti2862  1  0.37148030  0.02140911  0.38106003  1.0
  Ti  Ti2863  1  0.37148030  0.18807577  0.38106003  1.0
  Ti  Ti2864  1  0.37148030  0.35474244  0.38106003  1.0
  Ti  Ti2865  1  0.37148030  0.52140911  0.38106003  1.0
  Ti  Ti2866  1  0.37148030  0.68807577  0.38106003  1.0
  Ti  Ti2867  1  0.37148030  0.85474244  0.38106003  1.0
  Ti  Ti2868  1  0.46238939  0.02140911  0.38106003  1.0
  Ti  Ti2869  1  0.46238939  0.18807577  0.38106003  1.0
  Ti  Ti2870  1  0.46238939  0.35474244  0.38106003  1.0
  Ti  Ti2871  1  0.46238939  0.52140911  0.38106003  1.0
  Ti  Ti2872  1  0.46238939  0.68807577  0.38106003  1.0
  Ti  Ti2873  1  0.46238939  0.85474244  0.38106003  1.0
  Ti  Ti2874  1  0.55329848  0.02140911  0.38106003  1.0
  Ti  Ti2875  1  0.55329848  0.18807577  0.38106003  1.0
  Ti  Ti2876  1  0.55329848  0.35474244  0.38106003  1.0
  Ti  Ti2877  1  0.55329848  0.52140911  0.38106003  1.0
  Ti  Ti2878  1  0.55329848  0.68807577  0.38106003  1.0
  Ti  Ti2879  1  0.55329848  0.85474244  0.38106003  1.0
  Ti  Ti2880  1  0.64420758  0.02140911  0.38106003  1.0
  Ti  Ti2881  1  0.64420758  0.18807577  0.38106003  1.0
  Ti  Ti2882  1  0.64420758  0.35474244  0.38106003  1.0
  Ti  Ti2883  1  0.64420758  0.52140911  0.38106003  1.0
  Ti  Ti2884  1  0.64420758  0.68807577  0.38106003  1.0
  Ti  Ti2885  1  0.64420758  0.85474244  0.38106003  1.0
  Ti  Ti2886  1  0.73511667  0.02140911  0.38106003  1.0
  Ti  Ti2887  1  0.73511667  0.18807577  0.38106003  1.0
  Ti  Ti2888  1  0.73511667  0.35474244  0.38106003  1.0
  Ti  Ti2889  1  0.73511667  0.52140911  0.38106003  1.0
  Ti  Ti2890  1  0.73511667  0.68807577  0.38106003  1.0
  Ti  Ti2891  1  0.73511667  0.85474244  0.38106003  1.0
  Ti  Ti2892  1  0.82602576  0.02140911  0.38106003  1.0
  Ti  Ti2893  1  0.82602576  0.18807577  0.38106003  1.0
  Ti  Ti2894  1  0.82602576  0.35474244  0.38106003  1.0
  Ti  Ti2895  1  0.82602576  0.52140911  0.38106003  1.0
  Ti  Ti2896  1  0.82602576  0.68807577  0.38106003  1.0
  Ti  Ti2897  1  0.82602576  0.85474244  0.38106003  1.0
  Ti  Ti2898  1  0.91693485  0.02140911  0.38106003  1.0
  Ti  Ti2899  1  0.91693485  0.18807577  0.38106003  1.0
  Ti  Ti2900  1  0.91693485  0.35474244  0.38106003  1.0
  Ti  Ti2901  1  0.91693485  0.52140911  0.38106003  1.0
  Ti  Ti2902  1  0.91693485  0.68807577  0.38106003  1.0
  Ti  Ti2903  1  0.91693485  0.85474244  0.38106003  1.0
  Ti  Ti2904  1  0.05092418  0.16222925  0.52216542  1.0
  Ti  Ti2905  1  0.05092418  0.32889592  0.52216542  1.0
  Ti  Ti2906  1  0.05092418  0.49556258  0.52216542  1.0
  Ti  Ti2907  1  0.05092418  0.66222925  0.52216542  1.0
  Ti  Ti2908  1  0.05092418  0.82889592  0.52216542  1.0
  Ti  Ti2909  1  0.05092418  0.99556258  0.52216542  1.0
  Ti  Ti2910  1  0.14183328  0.16222925  0.52216542  1.0
  Ti  Ti2911  1  0.14183328  0.32889592  0.52216542  1.0
  Ti  Ti2912  1  0.14183328  0.49556258  0.52216542  1.0
  Ti  Ti2913  1  0.14183328  0.66222925  0.52216542  1.0
  Ti  Ti2914  1  0.14183328  0.82889592  0.52216542  1.0
  Ti  Ti2915  1  0.14183328  0.99556258  0.52216542  1.0
  Ti  Ti2916  1  0.23274237  0.16222925  0.52216542  1.0
  Ti  Ti2917  1  0.23274237  0.32889592  0.52216542  1.0
  Ti  Ti2918  1  0.23274237  0.49556258  0.52216542  1.0
  Ti  Ti2919  1  0.23274237  0.66222925  0.52216542  1.0
  Ti  Ti2920  1  0.23274237  0.82889592  0.52216542  1.0
  Ti  Ti2921  1  0.23274237  0.99556258  0.52216542  1.0
  Ti  Ti2922  1  0.32365146  0.16222925  0.52216542  1.0
  Ti  Ti2923  1  0.32365146  0.32889592  0.52216542  1.0
  Ti  Ti2924  1  0.32365146  0.49556258  0.52216542  1.0
  Ti  Ti2925  1  0.32365146  0.66222925  0.52216542  1.0
  Ti  Ti2926  1  0.32365146  0.82889592  0.52216542  1.0
  Ti  Ti2927  1  0.32365146  0.99556258  0.52216542  1.0
  Ti  Ti2928  1  0.41456055  0.16222925  0.52216542  1.0
  Ti  Ti2929  1  0.41456055  0.32889592  0.52216542  1.0
  Ti  Ti2930  1  0.41456055  0.49556258  0.52216542  1.0
  Ti  Ti2931  1  0.41456055  0.66222925  0.52216542  1.0
  Ti  Ti2932  1  0.41456055  0.82889592  0.52216542  1.0
  Ti  Ti2933  1  0.41456055  0.99556258  0.52216542  1.0
  Ti  Ti2934  1  0.50546964  0.16222925  0.52216542  1.0
  Ti  Ti2935  1  0.50546964  0.32889592  0.52216542  1.0
  Ti  Ti2936  1  0.50546964  0.49556258  0.52216542  1.0
  Ti  Ti2937  1  0.50546964  0.66222925  0.52216542  1.0
  Ti  Ti2938  1  0.50546964  0.82889592  0.52216542  1.0
  Ti  Ti2939  1  0.50546964  0.99556258  0.52216542  1.0
  Ti  Ti2940  1  0.59637873  0.16222925  0.52216542  1.0
  Ti  Ti2941  1  0.59637873  0.32889592  0.52216542  1.0
  Ti  Ti2942  1  0.59637873  0.49556258  0.52216542  1.0
  Ti  Ti2943  1  0.59637873  0.66222925  0.52216542  1.0
  Ti  Ti2944  1  0.59637873  0.82889592  0.52216542  1.0
  Ti  Ti2945  1  0.59637873  0.99556258  0.52216542  1.0
  Ti  Ti2946  1  0.68728782  0.16222925  0.52216542  1.0
  Ti  Ti2947  1  0.68728782  0.32889592  0.52216542  1.0
  Ti  Ti2948  1  0.68728782  0.49556258  0.52216542  1.0
  Ti  Ti2949  1  0.68728782  0.66222925  0.52216542  1.0
  Ti  Ti2950  1  0.68728782  0.82889592  0.52216542  1.0
  Ti  Ti2951  1  0.68728782  0.99556258  0.52216542  1.0
  Ti  Ti2952  1  0.77819691  0.16222925  0.52216542  1.0
  Ti  Ti2953  1  0.77819691  0.32889592  0.52216542  1.0
  Ti  Ti2954  1  0.77819691  0.49556258  0.52216542  1.0
  Ti  Ti2955  1  0.77819691  0.66222925  0.52216542  1.0
  Ti  Ti2956  1  0.77819691  0.82889592  0.52216542  1.0
  Ti  Ti2957  1  0.77819691  0.99556258  0.52216542  1.0
  Ti  Ti2958  1  0.86910600  0.16222925  0.52216542  1.0
  Ti  Ti2959  1  0.86910600  0.32889592  0.52216542  1.0
  Ti  Ti2960  1  0.86910600  0.49556258  0.52216542  1.0
  Ti  Ti2961  1  0.86910600  0.66222925  0.52216542  1.0
  Ti  Ti2962  1  0.86910600  0.82889592  0.52216542  1.0
  Ti  Ti2963  1  0.86910600  0.99556258  0.52216542  1.0
  Ti  Ti2964  1  0.96001509  0.16222925  0.52216542  1.0
  Ti  Ti2965  1  0.96001509  0.32889592  0.52216542  1.0
  Ti  Ti2966  1  0.96001509  0.49556258  0.52216542  1.0
  Ti  Ti2967  1  0.96001509  0.66222925  0.52216542  1.0
  Ti  Ti2968  1  0.96001509  0.82889592  0.52216542  1.0
  Ti  Ti2969  1  0.96001509  0.99556258  0.52216542  1.0
  Ti  Ti2970  1  0.00546964  0.15032449  0.59359399  1.0
  Ti  Ti2971  1  0.00546964  0.31699115  0.59359399  1.0
  Ti  Ti2972  1  0.00546964  0.48365782  0.59359399  1.0
  Ti  Ti2973  1  0.00546964  0.65032449  0.59359399  1.0
  Ti  Ti2974  1  0.00546964  0.81699115  0.59359399  1.0
  Ti  Ti2975  1  0.00546964  0.98365782  0.59359399  1.0
  Ti  Ti2976  1  0.09637873  0.15032449  0.59359399  1.0
  Ti  Ti2977  1  0.09637873  0.31699115  0.59359399  1.0
  Ti  Ti2978  1  0.09637873  0.48365782  0.59359399  1.0
  Ti  Ti2979  1  0.09637873  0.65032449  0.59359399  1.0
  Ti  Ti2980  1  0.09637873  0.81699115  0.59359399  1.0
  Ti  Ti2981  1  0.09637873  0.98365782  0.59359399  1.0
  Ti  Ti2982  1  0.18728782  0.15032449  0.59359399  1.0
  Ti  Ti2983  1  0.18728782  0.31699115  0.59359399  1.0
  Ti  Ti2984  1  0.18728782  0.48365782  0.59359399  1.0
  Ti  Ti2985  1  0.18728782  0.65032449  0.59359399  1.0
  Ti  Ti2986  1  0.18728782  0.81699115  0.59359399  1.0
  Ti  Ti2987  1  0.18728782  0.98365782  0.59359399  1.0
  Ti  Ti2988  1  0.27819691  0.15032449  0.59359399  1.0
  Ti  Ti2989  1  0.27819691  0.31699115  0.59359399  1.0
  Ti  Ti2990  1  0.27819691  0.48365782  0.59359399  1.0
  Ti  Ti2991  1  0.27819691  0.65032449  0.59359399  1.0
  Ti  Ti2992  1  0.27819691  0.81699115  0.59359399  1.0
  Ti  Ti2993  1  0.27819691  0.98365782  0.59359399  1.0
  Ti  Ti2994  1  0.36910600  0.15032449  0.59359399  1.0
  Ti  Ti2995  1  0.36910600  0.31699115  0.59359399  1.0
  Ti  Ti2996  1  0.36910600  0.48365782  0.59359399  1.0
  Ti  Ti2997  1  0.36910600  0.65032449  0.59359399  1.0
  Ti  Ti2998  1  0.36910600  0.81699115  0.59359399  1.0
  Ti  Ti2999  1  0.36910600  0.98365782  0.59359399  1.0
  Ti  Ti3000  1  0.46001509  0.15032449  0.59359399  1.0
  Ti  Ti3001  1  0.46001509  0.31699115  0.59359399  1.0
  Ti  Ti3002  1  0.46001509  0.48365782  0.59359399  1.0
  Ti  Ti3003  1  0.46001509  0.65032449  0.59359399  1.0
  Ti  Ti3004  1  0.46001509  0.81699115  0.59359399  1.0
  Ti  Ti3005  1  0.46001509  0.98365782  0.59359399  1.0
  Ti  Ti3006  1  0.55092418  0.15032449  0.59359399  1.0
  Ti  Ti3007  1  0.55092418  0.31699115  0.59359399  1.0
  Ti  Ti3008  1  0.55092418  0.48365782  0.59359399  1.0
  Ti  Ti3009  1  0.55092418  0.65032449  0.59359399  1.0
  Ti  Ti3010  1  0.55092418  0.81699115  0.59359399  1.0
  Ti  Ti3011  1  0.55092418  0.98365782  0.59359399  1.0
  Ti  Ti3012  1  0.64183328  0.15032449  0.59359399  1.0
  Ti  Ti3013  1  0.64183328  0.31699115  0.59359399  1.0
  Ti  Ti3014  1  0.64183328  0.48365782  0.59359399  1.0
  Ti  Ti3015  1  0.64183328  0.65032449  0.59359399  1.0
  Ti  Ti3016  1  0.64183328  0.81699115  0.59359399  1.0
  Ti  Ti3017  1  0.64183328  0.98365782  0.59359399  1.0
  Ti  Ti3018  1  0.73274237  0.15032449  0.59359399  1.0
  Ti  Ti3019  1  0.73274237  0.31699115  0.59359399  1.0
  Ti  Ti3020  1  0.73274237  0.48365782  0.59359399  1.0
  Ti  Ti3021  1  0.73274237  0.65032449  0.59359399  1.0
  Ti  Ti3022  1  0.73274237  0.81699115  0.59359399  1.0
  Ti  Ti3023  1  0.73274237  0.98365782  0.59359399  1.0
  Ti  Ti3024  1  0.82365146  0.15032449  0.59359399  1.0
  Ti  Ti3025  1  0.82365146  0.31699115  0.59359399  1.0
  Ti  Ti3026  1  0.82365146  0.48365782  0.59359399  1.0
  Ti  Ti3027  1  0.82365146  0.65032449  0.59359399  1.0
  Ti  Ti3028  1  0.82365146  0.81699115  0.59359399  1.0
  Ti  Ti3029  1  0.82365146  0.98365782  0.59359399  1.0
  Ti  Ti3030  1  0.91456055  0.15032449  0.59359399  1.0
  Ti  Ti3031  1  0.91456055  0.31699115  0.59359399  1.0
  Ti  Ti3032  1  0.91456055  0.48365782  0.59359399  1.0
  Ti  Ti3033  1  0.91456055  0.65032449  0.59359399  1.0
  Ti  Ti3034  1  0.91456055  0.81699115  0.59359399  1.0
  Ti  Ti3035  1  0.91456055  0.98365782  0.59359399  1.0
  Ti  Ti3036  1  0.02023397  0.07665297  0.61348301  1.0
  Ti  Ti3037  1  0.02023397  0.24331963  0.61348301  1.0
  Ti  Ti3038  1  0.02023397  0.40998630  0.61348301  1.0
  Ti  Ti3039  1  0.02023397  0.57665297  0.61348301  1.0
  Ti  Ti3040  1  0.02023397  0.74331963  0.61348301  1.0
  Ti  Ti3041  1  0.02023397  0.90998630  0.61348301  1.0
  Ti  Ti3042  1  0.11114306  0.07665297  0.61348301  1.0
  Ti  Ti3043  1  0.11114306  0.24331963  0.61348301  1.0
  Ti  Ti3044  1  0.11114306  0.40998630  0.61348301  1.0
  Ti  Ti3045  1  0.11114306  0.57665297  0.61348301  1.0
  Ti  Ti3046  1  0.11114306  0.74331963  0.61348301  1.0
  Ti  Ti3047  1  0.11114306  0.90998630  0.61348301  1.0
  Ti  Ti3048  1  0.20205216  0.07665297  0.61348301  1.0
  Ti  Ti3049  1  0.20205216  0.24331963  0.61348301  1.0
  Ti  Ti3050  1  0.20205216  0.40998630  0.61348301  1.0
  Ti  Ti3051  1  0.20205216  0.57665297  0.61348301  1.0
  Ti  Ti3052  1  0.20205216  0.74331963  0.61348301  1.0
  Ti  Ti3053  1  0.20205216  0.90998630  0.61348301  1.0
  Ti  Ti3054  1  0.29296125  0.07665297  0.61348301  1.0
  Ti  Ti3055  1  0.29296125  0.24331963  0.61348301  1.0
  Ti  Ti3056  1  0.29296125  0.40998630  0.61348301  1.0
  Ti  Ti3057  1  0.29296125  0.57665297  0.61348301  1.0
  Ti  Ti3058  1  0.29296125  0.74331963  0.61348301  1.0
  Ti  Ti3059  1  0.29296125  0.90998630  0.61348301  1.0
  Ti  Ti3060  1  0.38387034  0.07665297  0.61348301  1.0
  Ti  Ti3061  1  0.38387034  0.24331963  0.61348301  1.0
  Ti  Ti3062  1  0.38387034  0.40998630  0.61348301  1.0
  Ti  Ti3063  1  0.38387034  0.57665297  0.61348301  1.0
  Ti  Ti3064  1  0.38387034  0.74331963  0.61348301  1.0
  Ti  Ti3065  1  0.38387034  0.90998630  0.61348301  1.0
  Ti  Ti3066  1  0.47477943  0.07665297  0.61348301  1.0
  Ti  Ti3067  1  0.47477943  0.24331963  0.61348301  1.0
  Ti  Ti3068  1  0.47477943  0.40998630  0.61348301  1.0
  Ti  Ti3069  1  0.47477943  0.57665297  0.61348301  1.0
  Ti  Ti3070  1  0.47477943  0.74331963  0.61348301  1.0
  Ti  Ti3071  1  0.47477943  0.90998630  0.61348301  1.0
  Ti  Ti3072  1  0.56568852  0.07665297  0.61348301  1.0
  Ti  Ti3073  1  0.56568852  0.24331963  0.61348301  1.0
  Ti  Ti3074  1  0.56568852  0.40998630  0.61348301  1.0
  Ti  Ti3075  1  0.56568852  0.57665297  0.61348301  1.0
  Ti  Ti3076  1  0.56568852  0.74331963  0.61348301  1.0
  Ti  Ti3077  1  0.56568852  0.90998630  0.61348301  1.0
  Ti  Ti3078  1  0.65659761  0.07665297  0.61348301  1.0
  Ti  Ti3079  1  0.65659761  0.24331963  0.61348301  1.0
  Ti  Ti3080  1  0.65659761  0.40998630  0.61348301  1.0
  Ti  Ti3081  1  0.65659761  0.57665297  0.61348301  1.0
  Ti  Ti3082  1  0.65659761  0.74331963  0.61348301  1.0
  Ti  Ti3083  1  0.65659761  0.90998630  0.61348301  1.0
  Ti  Ti3084  1  0.74750670  0.07665297  0.61348301  1.0
  Ti  Ti3085  1  0.74750670  0.24331963  0.61348301  1.0
  Ti  Ti3086  1  0.74750670  0.40998630  0.61348301  1.0
  Ti  Ti3087  1  0.74750670  0.57665297  0.61348301  1.0
  Ti  Ti3088  1  0.74750670  0.74331963  0.61348301  1.0
  Ti  Ti3089  1  0.74750670  0.90998630  0.61348301  1.0
  Ti  Ti3090  1  0.83841579  0.07665297  0.61348301  1.0
  Ti  Ti3091  1  0.83841579  0.24331963  0.61348301  1.0
  Ti  Ti3092  1  0.83841579  0.40998630  0.61348301  1.0
  Ti  Ti3093  1  0.83841579  0.57665297  0.61348301  1.0
  Ti  Ti3094  1  0.83841579  0.74331963  0.61348301  1.0
  Ti  Ti3095  1  0.83841579  0.90998630  0.61348301  1.0
  Ti  Ti3096  1  0.92932488  0.07665297  0.61348301  1.0
  Ti  Ti3097  1  0.92932488  0.24331963  0.61348301  1.0
  Ti  Ti3098  1  0.92932488  0.40998630  0.61348301  1.0
  Ti  Ti3099  1  0.92932488  0.57665297  0.61348301  1.0
  Ti  Ti3100  1  0.92932488  0.74331963  0.61348301  1.0
  Ti  Ti3101  1  0.92932488  0.90998630  0.61348301  1.0
  Ti  Ti3102  1  0.06568852  0.08855773  0.54205444  1.0
  Ti  Ti3103  1  0.06568852  0.25522439  0.54205444  1.0
  Ti  Ti3104  1  0.06568852  0.42189106  0.54205444  1.0
  Ti  Ti3105  1  0.06568852  0.58855773  0.54205444  1.0
  Ti  Ti3106  1  0.06568852  0.75522439  0.54205444  1.0
  Ti  Ti3107  1  0.06568852  0.92189106  0.54205444  1.0
  Ti  Ti3108  1  0.15659761  0.08855773  0.54205444  1.0
  Ti  Ti3109  1  0.15659761  0.25522439  0.54205444  1.0
  Ti  Ti3110  1  0.15659761  0.42189106  0.54205444  1.0
  Ti  Ti3111  1  0.15659761  0.58855773  0.54205444  1.0
  Ti  Ti3112  1  0.15659761  0.75522439  0.54205444  1.0
  Ti  Ti3113  1  0.15659761  0.92189106  0.54205444  1.0
  Ti  Ti3114  1  0.24750670  0.08855773  0.54205444  1.0
  Ti  Ti3115  1  0.24750670  0.25522439  0.54205444  1.0
  Ti  Ti3116  1  0.24750670  0.42189106  0.54205444  1.0
  Ti  Ti3117  1  0.24750670  0.58855773  0.54205444  1.0
  Ti  Ti3118  1  0.24750670  0.75522439  0.54205444  1.0
  Ti  Ti3119  1  0.24750670  0.92189106  0.54205444  1.0
  Ti  Ti3120  1  0.33841579  0.08855773  0.54205444  1.0
  Ti  Ti3121  1  0.33841579  0.25522439  0.54205444  1.0
  Ti  Ti3122  1  0.33841579  0.42189106  0.54205444  1.0
  Ti  Ti3123  1  0.33841579  0.58855773  0.54205444  1.0
  Ti  Ti3124  1  0.33841579  0.75522439  0.54205444  1.0
  Ti  Ti3125  1  0.33841579  0.92189106  0.54205444  1.0
  Ti  Ti3126  1  0.42932488  0.08855773  0.54205444  1.0
  Ti  Ti3127  1  0.42932488  0.25522439  0.54205444  1.0
  Ti  Ti3128  1  0.42932488  0.42189106  0.54205444  1.0
  Ti  Ti3129  1  0.42932488  0.58855773  0.54205444  1.0
  Ti  Ti3130  1  0.42932488  0.75522439  0.54205444  1.0
  Ti  Ti3131  1  0.42932488  0.92189106  0.54205444  1.0
  Ti  Ti3132  1  0.52023397  0.08855773  0.54205444  1.0
  Ti  Ti3133  1  0.52023397  0.25522439  0.54205444  1.0
  Ti  Ti3134  1  0.52023397  0.42189106  0.54205444  1.0
  Ti  Ti3135  1  0.52023397  0.58855773  0.54205444  1.0
  Ti  Ti3136  1  0.52023397  0.75522439  0.54205444  1.0
  Ti  Ti3137  1  0.52023397  0.92189106  0.54205444  1.0
  Ti  Ti3138  1  0.61114306  0.08855773  0.54205444  1.0
  Ti  Ti3139  1  0.61114306  0.25522439  0.54205444  1.0
  Ti  Ti3140  1  0.61114306  0.42189106  0.54205444  1.0
  Ti  Ti3141  1  0.61114306  0.58855773  0.54205444  1.0
  Ti  Ti3142  1  0.61114306  0.75522439  0.54205444  1.0
  Ti  Ti3143  1  0.61114306  0.92189106  0.54205444  1.0
  Ti  Ti3144  1  0.70205216  0.08855773  0.54205444  1.0
  Ti  Ti3145  1  0.70205216  0.25522439  0.54205444  1.0
  Ti  Ti3146  1  0.70205216  0.42189106  0.54205444  1.0
  Ti  Ti3147  1  0.70205216  0.58855773  0.54205444  1.0
  Ti  Ti3148  1  0.70205216  0.75522439  0.54205444  1.0
  Ti  Ti3149  1  0.70205216  0.92189106  0.54205444  1.0
  Ti  Ti3150  1  0.79296125  0.08855773  0.54205444  1.0
  Ti  Ti3151  1  0.79296125  0.25522439  0.54205444  1.0
  Ti  Ti3152  1  0.79296125  0.42189106  0.54205444  1.0
  Ti  Ti3153  1  0.79296125  0.58855773  0.54205444  1.0
  Ti  Ti3154  1  0.79296125  0.75522439  0.54205444  1.0
  Ti  Ti3155  1  0.79296125  0.92189106  0.54205444  1.0
  Ti  Ti3156  1  0.88387034  0.08855773  0.54205444  1.0
  Ti  Ti3157  1  0.88387034  0.25522439  0.54205444  1.0
  Ti  Ti3158  1  0.88387034  0.42189106  0.54205444  1.0
  Ti  Ti3159  1  0.88387034  0.58855773  0.54205444  1.0
  Ti  Ti3160  1  0.88387034  0.75522439  0.54205444  1.0
  Ti  Ti3161  1  0.88387034  0.92189106  0.54205444  1.0
  Ti  Ti3162  1  0.97477943  0.08855773  0.54205444  1.0
  Ti  Ti3163  1  0.97477943  0.25522439  0.54205444  1.0
  Ti  Ti3164  1  0.97477943  0.42189106  0.54205444  1.0
  Ti  Ti3165  1  0.97477943  0.58855773  0.54205444  1.0
  Ti  Ti3166  1  0.97477943  0.75522439  0.54205444  1.0
  Ti  Ti3167  1  0.97477943  0.92189106  0.54205444  1.0
  Ti  Ti3168  1  0.05762150  0.04170471  0.53393475  1.0
  Ti  Ti3169  1  0.05762150  0.20837138  0.53393475  1.0
  Ti  Ti3170  1  0.05762150  0.37503804  0.53393475  1.0
  Ti  Ti3171  1  0.05762150  0.54170471  0.53393475  1.0
  Ti  Ti3172  1  0.05762150  0.70837138  0.53393475  1.0
  Ti  Ti3173  1  0.05762150  0.87503804  0.53393475  1.0
  Ti  Ti3174  1  0.14853059  0.04170471  0.53393475  1.0
  Ti  Ti3175  1  0.14853059  0.20837138  0.53393475  1.0
  Ti  Ti3176  1  0.14853059  0.37503804  0.53393475  1.0
  Ti  Ti3177  1  0.14853059  0.54170471  0.53393475  1.0
  Ti  Ti3178  1  0.14853059  0.70837138  0.53393475  1.0
  Ti  Ti3179  1  0.14853059  0.87503804  0.53393475  1.0
  Ti  Ti3180  1  0.23943968  0.04170471  0.53393475  1.0
  Ti  Ti3181  1  0.23943968  0.20837138  0.53393475  1.0
  Ti  Ti3182  1  0.23943968  0.37503804  0.53393475  1.0
  Ti  Ti3183  1  0.23943968  0.54170471  0.53393475  1.0
  Ti  Ti3184  1  0.23943968  0.70837138  0.53393475  1.0
  Ti  Ti3185  1  0.23943968  0.87503804  0.53393475  1.0
  Ti  Ti3186  1  0.33034877  0.04170471  0.53393475  1.0
  Ti  Ti3187  1  0.33034877  0.20837138  0.53393475  1.0
  Ti  Ti3188  1  0.33034877  0.37503804  0.53393475  1.0
  Ti  Ti3189  1  0.33034877  0.54170471  0.53393475  1.0
  Ti  Ti3190  1  0.33034877  0.70837138  0.53393475  1.0
  Ti  Ti3191  1  0.33034877  0.87503804  0.53393475  1.0
  Ti  Ti3192  1  0.42125786  0.04170471  0.53393475  1.0
  Ti  Ti3193  1  0.42125786  0.20837138  0.53393475  1.0
  Ti  Ti3194  1  0.42125786  0.37503804  0.53393475  1.0
  Ti  Ti3195  1  0.42125786  0.54170471  0.53393475  1.0
  Ti  Ti3196  1  0.42125786  0.70837138  0.53393475  1.0
  Ti  Ti3197  1  0.42125786  0.87503804  0.53393475  1.0
  Ti  Ti3198  1  0.51216695  0.04170471  0.53393475  1.0
  Ti  Ti3199  1  0.51216695  0.20837138  0.53393475  1.0
  Ti  Ti3200  1  0.51216695  0.37503804  0.53393475  1.0
  Ti  Ti3201  1  0.51216695  0.54170471  0.53393475  1.0
  Ti  Ti3202  1  0.51216695  0.70837138  0.53393475  1.0
  Ti  Ti3203  1  0.51216695  0.87503804  0.53393475  1.0
  Ti  Ti3204  1  0.60307604  0.04170471  0.53393475  1.0
  Ti  Ti3205  1  0.60307604  0.20837138  0.53393475  1.0
  Ti  Ti3206  1  0.60307604  0.37503804  0.53393475  1.0
  Ti  Ti3207  1  0.60307604  0.54170471  0.53393475  1.0
  Ti  Ti3208  1  0.60307604  0.70837138  0.53393475  1.0
  Ti  Ti3209  1  0.60307604  0.87503804  0.53393475  1.0
  Ti  Ti3210  1  0.69398513  0.04170471  0.53393475  1.0
  Ti  Ti3211  1  0.69398513  0.20837138  0.53393475  1.0
  Ti  Ti3212  1  0.69398513  0.37503804  0.53393475  1.0
  Ti  Ti3213  1  0.69398513  0.54170471  0.53393475  1.0
  Ti  Ti3214  1  0.69398513  0.70837138  0.53393475  1.0
  Ti  Ti3215  1  0.69398513  0.87503804  0.53393475  1.0
  Ti  Ti3216  1  0.78489423  0.04170471  0.53393475  1.0
  Ti  Ti3217  1  0.78489423  0.20837138  0.53393475  1.0
  Ti  Ti3218  1  0.78489423  0.37503804  0.53393475  1.0
  Ti  Ti3219  1  0.78489423  0.54170471  0.53393475  1.0
  Ti  Ti3220  1  0.78489423  0.70837138  0.53393475  1.0
  Ti  Ti3221  1  0.78489423  0.87503804  0.53393475  1.0
  Ti  Ti3222  1  0.87580332  0.04170471  0.53393475  1.0
  Ti  Ti3223  1  0.87580332  0.20837138  0.53393475  1.0
  Ti  Ti3224  1  0.87580332  0.37503804  0.53393475  1.0
  Ti  Ti3225  1  0.87580332  0.54170471  0.53393475  1.0
  Ti  Ti3226  1  0.87580332  0.70837138  0.53393475  1.0
  Ti  Ti3227  1  0.87580332  0.87503804  0.53393475  1.0
  Ti  Ti3228  1  0.96671241  0.04170471  0.53393475  1.0
  Ti  Ti3229  1  0.96671241  0.20837138  0.53393475  1.0
  Ti  Ti3230  1  0.96671241  0.37503804  0.53393475  1.0
  Ti  Ti3231  1  0.96671241  0.54170471  0.53393475  1.0
  Ti  Ti3232  1  0.96671241  0.70837138  0.53393475  1.0
  Ti  Ti3233  1  0.96671241  0.87503804  0.53393475  1.0
  Ti  Ti3234  1  0.01216695  0.02979995  0.60536332  1.0
  Ti  Ti3235  1  0.01216695  0.19646661  0.60536332  1.0
  Ti  Ti3236  1  0.01216695  0.36313328  0.60536332  1.0
  Ti  Ti3237  1  0.01216695  0.52979995  0.60536332  1.0
  Ti  Ti3238  1  0.01216695  0.69646661  0.60536332  1.0
  Ti  Ti3239  1  0.01216695  0.86313328  0.60536332  1.0
  Ti  Ti3240  1  0.10307604  0.02979995  0.60536332  1.0
  Ti  Ti3241  1  0.10307604  0.19646661  0.60536332  1.0
  Ti  Ti3242  1  0.10307604  0.36313328  0.60536332  1.0
  Ti  Ti3243  1  0.10307604  0.52979995  0.60536332  1.0
  Ti  Ti3244  1  0.10307604  0.69646661  0.60536332  1.0
  Ti  Ti3245  1  0.10307604  0.86313328  0.60536332  1.0
  Ti  Ti3246  1  0.19398513  0.02979995  0.60536332  1.0
  Ti  Ti3247  1  0.19398513  0.19646661  0.60536332  1.0
  Ti  Ti3248  1  0.19398513  0.36313328  0.60536332  1.0
  Ti  Ti3249  1  0.19398513  0.52979995  0.60536332  1.0
  Ti  Ti3250  1  0.19398513  0.69646661  0.60536332  1.0
  Ti  Ti3251  1  0.19398513  0.86313328  0.60536332  1.0
  Ti  Ti3252  1  0.28489423  0.02979995  0.60536332  1.0
  Ti  Ti3253  1  0.28489423  0.19646661  0.60536332  1.0
  Ti  Ti3254  1  0.28489423  0.36313328  0.60536332  1.0
  Ti  Ti3255  1  0.28489423  0.52979995  0.60536332  1.0
  Ti  Ti3256  1  0.28489423  0.69646661  0.60536332  1.0
  Ti  Ti3257  1  0.28489423  0.86313328  0.60536332  1.0
  Ti  Ti3258  1  0.37580332  0.02979995  0.60536332  1.0
  Ti  Ti3259  1  0.37580332  0.19646661  0.60536332  1.0
  Ti  Ti3260  1  0.37580332  0.36313328  0.60536332  1.0
  Ti  Ti3261  1  0.37580332  0.52979995  0.60536332  1.0
  Ti  Ti3262  1  0.37580332  0.69646661  0.60536332  1.0
  Ti  Ti3263  1  0.37580332  0.86313328  0.60536332  1.0
  Ti  Ti3264  1  0.46671241  0.02979995  0.60536332  1.0
  Ti  Ti3265  1  0.46671241  0.19646661  0.60536332  1.0
  Ti  Ti3266  1  0.46671241  0.36313328  0.60536332  1.0
  Ti  Ti3267  1  0.46671241  0.52979995  0.60536332  1.0
  Ti  Ti3268  1  0.46671241  0.69646661  0.60536332  1.0
  Ti  Ti3269  1  0.46671241  0.86313328  0.60536332  1.0
  Ti  Ti3270  1  0.55762150  0.02979995  0.60536332  1.0
  Ti  Ti3271  1  0.55762150  0.19646661  0.60536332  1.0
  Ti  Ti3272  1  0.55762150  0.36313328  0.60536332  1.0
  Ti  Ti3273  1  0.55762150  0.52979995  0.60536332  1.0
  Ti  Ti3274  1  0.55762150  0.69646661  0.60536332  1.0
  Ti  Ti3275  1  0.55762150  0.86313328  0.60536332  1.0
  Ti  Ti3276  1  0.64853059  0.02979995  0.60536332  1.0
  Ti  Ti3277  1  0.64853059  0.19646661  0.60536332  1.0
  Ti  Ti3278  1  0.64853059  0.36313328  0.60536332  1.0
  Ti  Ti3279  1  0.64853059  0.52979995  0.60536332  1.0
  Ti  Ti3280  1  0.64853059  0.69646661  0.60536332  1.0
  Ti  Ti3281  1  0.64853059  0.86313328  0.60536332  1.0
  Ti  Ti3282  1  0.73943968  0.02979995  0.60536332  1.0
  Ti  Ti3283  1  0.73943968  0.19646661  0.60536332  1.0
  Ti  Ti3284  1  0.73943968  0.36313328  0.60536332  1.0
  Ti  Ti3285  1  0.73943968  0.52979995  0.60536332  1.0
  Ti  Ti3286  1  0.73943968  0.69646661  0.60536332  1.0
  Ti  Ti3287  1  0.73943968  0.86313328  0.60536332  1.0
  Ti  Ti3288  1  0.83034877  0.02979995  0.60536332  1.0
  Ti  Ti3289  1  0.83034877  0.19646661  0.60536332  1.0
  Ti  Ti3290  1  0.83034877  0.36313328  0.60536332  1.0
  Ti  Ti3291  1  0.83034877  0.52979995  0.60536332  1.0
  Ti  Ti3292  1  0.83034877  0.69646661  0.60536332  1.0
  Ti  Ti3293  1  0.83034877  0.86313328  0.60536332  1.0
  Ti  Ti3294  1  0.92125786  0.02979995  0.60536332  1.0
  Ti  Ti3295  1  0.92125786  0.19646661  0.60536332  1.0
  Ti  Ti3296  1  0.92125786  0.36313328  0.60536332  1.0
  Ti  Ti3297  1  0.92125786  0.52979995  0.60536332  1.0
  Ti  Ti3298  1  0.92125786  0.69646661  0.60536332  1.0
  Ti  Ti3299  1  0.92125786  0.86313328  0.60536332  1.0
  Ti  Ti3300  1  0.04517765  0.10207877  0.58548376  1.0
  Ti  Ti3301  1  0.04517765  0.26874544  0.58548376  1.0
  Ti  Ti3302  1  0.04517765  0.43541211  0.58548376  1.0
  Ti  Ti3303  1  0.04517765  0.60207877  0.58548376  1.0
  Ti  Ti3304  1  0.04517765  0.76874544  0.58548376  1.0
  Ti  Ti3305  1  0.04517765  0.93541211  0.58548376  1.0
  Ti  Ti3306  1  0.13608674  0.10207877  0.58548376  1.0
  Ti  Ti3307  1  0.13608674  0.26874544  0.58548376  1.0
  Ti  Ti3308  1  0.13608674  0.43541211  0.58548376  1.0
  Ti  Ti3309  1  0.13608674  0.60207877  0.58548376  1.0
  Ti  Ti3310  1  0.13608674  0.76874544  0.58548376  1.0
  Ti  Ti3311  1  0.13608674  0.93541211  0.58548376  1.0
  Ti  Ti3312  1  0.22699583  0.10207877  0.58548376  1.0
  Ti  Ti3313  1  0.22699583  0.26874544  0.58548376  1.0
  Ti  Ti3314  1  0.22699583  0.43541211  0.58548376  1.0
  Ti  Ti3315  1  0.22699583  0.60207877  0.58548376  1.0
  Ti  Ti3316  1  0.22699583  0.76874544  0.58548376  1.0
  Ti  Ti3317  1  0.22699583  0.93541211  0.58548376  1.0
  Ti  Ti3318  1  0.31790493  0.10207877  0.58548376  1.0
  Ti  Ti3319  1  0.31790493  0.26874544  0.58548376  1.0
  Ti  Ti3320  1  0.31790493  0.43541211  0.58548376  1.0
  Ti  Ti3321  1  0.31790493  0.60207877  0.58548376  1.0
  Ti  Ti3322  1  0.31790493  0.76874544  0.58548376  1.0
  Ti  Ti3323  1  0.31790493  0.93541211  0.58548376  1.0
  Ti  Ti3324  1  0.40881402  0.10207877  0.58548376  1.0
  Ti  Ti3325  1  0.40881402  0.26874544  0.58548376  1.0
  Ti  Ti3326  1  0.40881402  0.43541211  0.58548376  1.0
  Ti  Ti3327  1  0.40881402  0.60207877  0.58548376  1.0
  Ti  Ti3328  1  0.40881402  0.76874544  0.58548376  1.0
  Ti  Ti3329  1  0.40881402  0.93541211  0.58548376  1.0
  Ti  Ti3330  1  0.49972311  0.10207877  0.58548376  1.0
  Ti  Ti3331  1  0.49972311  0.26874544  0.58548376  1.0
  Ti  Ti3332  1  0.49972311  0.43541211  0.58548376  1.0
  Ti  Ti3333  1  0.49972311  0.60207877  0.58548376  1.0
  Ti  Ti3334  1  0.49972311  0.76874544  0.58548376  1.0
  Ti  Ti3335  1  0.49972311  0.93541211  0.58548376  1.0
  Ti  Ti3336  1  0.59063220  0.10207877  0.58548376  1.0
  Ti  Ti3337  1  0.59063220  0.26874544  0.58548376  1.0
  Ti  Ti3338  1  0.59063220  0.43541211  0.58548376  1.0
  Ti  Ti3339  1  0.59063220  0.60207877  0.58548376  1.0
  Ti  Ti3340  1  0.59063220  0.76874544  0.58548376  1.0
  Ti  Ti3341  1  0.59063220  0.93541211  0.58548376  1.0
  Ti  Ti3342  1  0.68154129  0.10207877  0.58548376  1.0
  Ti  Ti3343  1  0.68154129  0.26874544  0.58548376  1.0
  Ti  Ti3344  1  0.68154129  0.43541211  0.58548376  1.0
  Ti  Ti3345  1  0.68154129  0.60207877  0.58548376  1.0
  Ti  Ti3346  1  0.68154129  0.76874544  0.58548376  1.0
  Ti  Ti3347  1  0.68154129  0.93541211  0.58548376  1.0
  Ti  Ti3348  1  0.77245038  0.10207877  0.58548376  1.0
  Ti  Ti3349  1  0.77245038  0.26874544  0.58548376  1.0
  Ti  Ti3350  1  0.77245038  0.43541211  0.58548376  1.0
  Ti  Ti3351  1  0.77245038  0.60207877  0.58548376  1.0
  Ti  Ti3352  1  0.77245038  0.76874544  0.58548376  1.0
  Ti  Ti3353  1  0.77245038  0.93541211  0.58548376  1.0
  Ti  Ti3354  1  0.86335947  0.10207877  0.58548376  1.0
  Ti  Ti3355  1  0.86335947  0.26874544  0.58548376  1.0
  Ti  Ti3356  1  0.86335947  0.43541211  0.58548376  1.0
  Ti  Ti3357  1  0.86335947  0.60207877  0.58548376  1.0
  Ti  Ti3358  1  0.86335947  0.76874544  0.58548376  1.0
  Ti  Ti3359  1  0.86335947  0.93541211  0.58548376  1.0
  Ti  Ti3360  1  0.95426856  0.10207877  0.58548376  1.0
  Ti  Ti3361  1  0.95426856  0.26874544  0.58548376  1.0
  Ti  Ti3362  1  0.95426856  0.43541211  0.58548376  1.0
  Ti  Ti3363  1  0.95426856  0.60207877  0.58548376  1.0
  Ti  Ti3364  1  0.95426856  0.76874544  0.58548376  1.0
  Ti  Ti3365  1  0.95426856  0.93541211  0.58548376  1.0
  Ti  Ti3366  1  0.09063220  0.11398354  0.51405519  1.0
  Ti  Ti3367  1  0.09063220  0.28065020  0.51405519  1.0
  Ti  Ti3368  1  0.09063220  0.44731687  0.51405519  1.0
  Ti  Ti3369  1  0.09063220  0.61398354  0.51405519  1.0
  Ti  Ti3370  1  0.09063220  0.78065020  0.51405519  1.0
  Ti  Ti3371  1  0.09063220  0.94731687  0.51405519  1.0
  Ti  Ti3372  1  0.18154129  0.11398354  0.51405519  1.0
  Ti  Ti3373  1  0.18154129  0.28065020  0.51405519  1.0
  Ti  Ti3374  1  0.18154129  0.44731687  0.51405519  1.0
  Ti  Ti3375  1  0.18154129  0.61398354  0.51405519  1.0
  Ti  Ti3376  1  0.18154129  0.78065020  0.51405519  1.0
  Ti  Ti3377  1  0.18154129  0.94731687  0.51405519  1.0
  Ti  Ti3378  1  0.27245038  0.11398354  0.51405519  1.0
  Ti  Ti3379  1  0.27245038  0.28065020  0.51405519  1.0
  Ti  Ti3380  1  0.27245038  0.44731687  0.51405519  1.0
  Ti  Ti3381  1  0.27245038  0.61398354  0.51405519  1.0
  Ti  Ti3382  1  0.27245038  0.78065020  0.51405519  1.0
  Ti  Ti3383  1  0.27245038  0.94731687  0.51405519  1.0
  Ti  Ti3384  1  0.36335947  0.11398354  0.51405519  1.0
  Ti  Ti3385  1  0.36335947  0.28065020  0.51405519  1.0
  Ti  Ti3386  1  0.36335947  0.44731687  0.51405519  1.0
  Ti  Ti3387  1  0.36335947  0.61398354  0.51405519  1.0
  Ti  Ti3388  1  0.36335947  0.78065020  0.51405519  1.0
  Ti  Ti3389  1  0.36335947  0.94731687  0.51405519  1.0
  Ti  Ti3390  1  0.45426856  0.11398354  0.51405519  1.0
  Ti  Ti3391  1  0.45426856  0.28065020  0.51405519  1.0
  Ti  Ti3392  1  0.45426856  0.44731687  0.51405519  1.0
  Ti  Ti3393  1  0.45426856  0.61398354  0.51405519  1.0
  Ti  Ti3394  1  0.45426856  0.78065020  0.51405519  1.0
  Ti  Ti3395  1  0.45426856  0.94731687  0.51405519  1.0
  Ti  Ti3396  1  0.54517765  0.11398354  0.51405519  1.0
  Ti  Ti3397  1  0.54517765  0.28065020  0.51405519  1.0
  Ti  Ti3398  1  0.54517765  0.44731687  0.51405519  1.0
  Ti  Ti3399  1  0.54517765  0.61398354  0.51405519  1.0
  Ti  Ti3400  1  0.54517765  0.78065020  0.51405519  1.0
  Ti  Ti3401  1  0.54517765  0.94731687  0.51405519  1.0
  Ti  Ti3402  1  0.63608674  0.11398354  0.51405519  1.0
  Ti  Ti3403  1  0.63608674  0.28065020  0.51405519  1.0
  Ti  Ti3404  1  0.63608674  0.44731687  0.51405519  1.0
  Ti  Ti3405  1  0.63608674  0.61398354  0.51405519  1.0
  Ti  Ti3406  1  0.63608674  0.78065020  0.51405519  1.0
  Ti  Ti3407  1  0.63608674  0.94731687  0.51405519  1.0
  Ti  Ti3408  1  0.72699584  0.11398354  0.51405519  1.0
  Ti  Ti3409  1  0.72699583  0.28065020  0.51405519  1.0
  Ti  Ti3410  1  0.72699583  0.44731687  0.51405519  1.0
  Ti  Ti3411  1  0.72699584  0.61398354  0.51405519  1.0
  Ti  Ti3412  1  0.72699584  0.78065020  0.51405519  1.0
  Ti  Ti3413  1  0.72699584  0.94731687  0.51405519  1.0
  Ti  Ti3414  1  0.81790493  0.11398354  0.51405519  1.0
  Ti  Ti3415  1  0.81790493  0.28065020  0.51405519  1.0
  Ti  Ti3416  1  0.81790493  0.44731687  0.51405519  1.0
  Ti  Ti3417  1  0.81790493  0.61398354  0.51405519  1.0
  Ti  Ti3418  1  0.81790493  0.78065020  0.51405519  1.0
  Ti  Ti3419  1  0.81790493  0.94731687  0.51405519  1.0
  Ti  Ti3420  1  0.90881402  0.11398354  0.51405519  1.0
  Ti  Ti3421  1  0.90881402  0.28065020  0.51405519  1.0
  Ti  Ti3422  1  0.90881402  0.44731687  0.51405519  1.0
  Ti  Ti3423  1  0.90881402  0.61398354  0.51405519  1.0
  Ti  Ti3424  1  0.90881402  0.78065020  0.51405519  1.0
  Ti  Ti3425  1  0.90881402  0.94731687  0.51405519  1.0
  Ti  Ti3426  1  0.99972311  0.11398354  0.51405519  1.0
  Ti  Ti3427  1  0.99972311  0.28065020  0.51405519  1.0
  Ti  Ti3428  1  0.99972311  0.44731687  0.51405519  1.0
  Ti  Ti3429  1  0.99972311  0.61398354  0.51405519  1.0
  Ti  Ti3430  1  0.99972311  0.78065020  0.51405519  1.0
  Ti  Ti3431  1  0.99972311  0.94731687  0.51405519  1.0
  Ti  Ti3432  1  0.02460185  0.13269322  0.55207347  1.0
  Ti  Ti3433  1  0.02460185  0.29935989  0.55207347  1.0
  Ti  Ti3434  1  0.02460185  0.46602656  0.55207347  1.0
  Ti  Ti3435  1  0.02460185  0.63269322  0.55207347  1.0
  Ti  Ti3436  1  0.02460185  0.79935989  0.55207347  1.0
  Ti  Ti3437  1  0.02460185  0.96602656  0.55207347  1.0
  Ti  Ti3438  1  0.11551094  0.13269322  0.55207347  1.0
  Ti  Ti3439  1  0.11551094  0.29935989  0.55207347  1.0
  Ti  Ti3440  1  0.11551094  0.46602656  0.55207347  1.0
  Ti  Ti3441  1  0.11551094  0.63269322  0.55207347  1.0
  Ti  Ti3442  1  0.11551094  0.79935989  0.55207347  1.0
  Ti  Ti3443  1  0.11551094  0.96602656  0.55207347  1.0
  Ti  Ti3444  1  0.20642003  0.13269322  0.55207347  1.0
  Ti  Ti3445  1  0.20642003  0.29935989  0.55207347  1.0
  Ti  Ti3446  1  0.20642003  0.46602656  0.55207347  1.0
  Ti  Ti3447  1  0.20642003  0.63269322  0.55207347  1.0
  Ti  Ti3448  1  0.20642003  0.79935989  0.55207347  1.0
  Ti  Ti3449  1  0.20642003  0.96602656  0.55207347  1.0
  Ti  Ti3450  1  0.29732912  0.13269322  0.55207347  1.0
  Ti  Ti3451  1  0.29732912  0.29935989  0.55207347  1.0
  Ti  Ti3452  1  0.29732912  0.46602656  0.55207347  1.0
  Ti  Ti3453  1  0.29732912  0.63269322  0.55207347  1.0
  Ti  Ti3454  1  0.29732912  0.79935989  0.55207347  1.0
  Ti  Ti3455  1  0.29732912  0.96602656  0.55207347  1.0
  Ti  Ti3456  1  0.38823821  0.13269322  0.55207347  1.0
  Ti  Ti3457  1  0.38823821  0.29935989  0.55207347  1.0
  Ti  Ti3458  1  0.38823821  0.46602656  0.55207347  1.0
  Ti  Ti3459  1  0.38823821  0.63269322  0.55207347  1.0
  Ti  Ti3460  1  0.38823821  0.79935989  0.55207347  1.0
  Ti  Ti3461  1  0.38823821  0.96602656  0.55207347  1.0
  Ti  Ti3462  1  0.47914730  0.13269322  0.55207347  1.0
  Ti  Ti3463  1  0.47914730  0.29935989  0.55207347  1.0
  Ti  Ti3464  1  0.47914730  0.46602656  0.55207347  1.0
  Ti  Ti3465  1  0.47914730  0.63269322  0.55207347  1.0
  Ti  Ti3466  1  0.47914730  0.79935989  0.55207347  1.0
  Ti  Ti3467  1  0.47914730  0.96602656  0.55207347  1.0
  Ti  Ti3468  1  0.57005639  0.13269322  0.55207347  1.0
  Ti  Ti3469  1  0.57005639  0.29935989  0.55207347  1.0
  Ti  Ti3470  1  0.57005639  0.46602656  0.55207347  1.0
  Ti  Ti3471  1  0.57005639  0.63269322  0.55207347  1.0
  Ti  Ti3472  1  0.57005639  0.79935989  0.55207347  1.0
  Ti  Ti3473  1  0.57005639  0.96602656  0.55207347  1.0
  Ti  Ti3474  1  0.66096549  0.13269322  0.55207347  1.0
  Ti  Ti3475  1  0.66096549  0.29935989  0.55207347  1.0
  Ti  Ti3476  1  0.66096549  0.46602656  0.55207347  1.0
  Ti  Ti3477  1  0.66096549  0.63269322  0.55207347  1.0
  Ti  Ti3478  1  0.66096549  0.79935989  0.55207347  1.0
  Ti  Ti3479  1  0.66096549  0.96602656  0.55207347  1.0
  Ti  Ti3480  1  0.75187458  0.13269322  0.55207347  1.0
  Ti  Ti3481  1  0.75187458  0.29935989  0.55207347  1.0
  Ti  Ti3482  1  0.75187458  0.46602656  0.55207347  1.0
  Ti  Ti3483  1  0.75187458  0.63269322  0.55207347  1.0
  Ti  Ti3484  1  0.75187458  0.79935989  0.55207347  1.0
  Ti  Ti3485  1  0.75187458  0.96602656  0.55207347  1.0
  Ti  Ti3486  1  0.84278367  0.13269322  0.55207347  1.0
  Ti  Ti3487  1  0.84278367  0.29935989  0.55207347  1.0
  Ti  Ti3488  1  0.84278367  0.46602656  0.55207347  1.0
  Ti  Ti3489  1  0.84278367  0.63269322  0.55207347  1.0
  Ti  Ti3490  1  0.84278367  0.79935989  0.55207347  1.0
  Ti  Ti3491  1  0.84278367  0.96602656  0.55207347  1.0
  Ti  Ti3492  1  0.93369276  0.13269322  0.55207347  1.0
  Ti  Ti3493  1  0.93369276  0.29935989  0.55207347  1.0
  Ti  Ti3494  1  0.93369276  0.46602656  0.55207347  1.0
  Ti  Ti3495  1  0.93369276  0.63269322  0.55207347  1.0
  Ti  Ti3496  1  0.93369276  0.79935989  0.55207347  1.0
  Ti  Ti3497  1  0.93369276  0.96602656  0.55207347  1.0
  Ti  Ti3498  1  0.07005639  0.12078846  0.62350204  1.0
  Ti  Ti3499  1  0.07005639  0.28745513  0.62350204  1.0
  Ti  Ti3500  1  0.07005639  0.45412179  0.62350204  1.0
  Ti  Ti3501  1  0.07005639  0.62078846  0.62350204  1.0
  Ti  Ti3502  1  0.07005639  0.78745513  0.62350204  1.0
  Ti  Ti3503  1  0.07005639  0.95412179  0.62350204  1.0
  Ti  Ti3504  1  0.16096549  0.12078846  0.62350204  1.0
  Ti  Ti3505  1  0.16096549  0.28745513  0.62350204  1.0
  Ti  Ti3506  1  0.16096549  0.45412179  0.62350204  1.0
  Ti  Ti3507  1  0.16096549  0.62078846  0.62350204  1.0
  Ti  Ti3508  1  0.16096549  0.78745513  0.62350204  1.0
  Ti  Ti3509  1  0.16096549  0.95412179  0.62350204  1.0
  Ti  Ti3510  1  0.25187458  0.12078846  0.62350204  1.0
  Ti  Ti3511  1  0.25187458  0.28745513  0.62350204  1.0
  Ti  Ti3512  1  0.25187458  0.45412179  0.62350204  1.0
  Ti  Ti3513  1  0.25187458  0.62078846  0.62350204  1.0
  Ti  Ti3514  1  0.25187458  0.78745513  0.62350204  1.0
  Ti  Ti3515  1  0.25187458  0.95412179  0.62350204  1.0
  Ti  Ti3516  1  0.34278367  0.12078846  0.62350204  1.0
  Ti  Ti3517  1  0.34278367  0.28745513  0.62350204  1.0
  Ti  Ti3518  1  0.34278367  0.45412179  0.62350204  1.0
  Ti  Ti3519  1  0.34278367  0.62078846  0.62350204  1.0
  Ti  Ti3520  1  0.34278367  0.78745513  0.62350204  1.0
  Ti  Ti3521  1  0.34278367  0.95412179  0.62350204  1.0
  Ti  Ti3522  1  0.43369276  0.12078846  0.62350204  1.0
  Ti  Ti3523  1  0.43369276  0.28745513  0.62350204  1.0
  Ti  Ti3524  1  0.43369276  0.45412179  0.62350204  1.0
  Ti  Ti3525  1  0.43369276  0.62078846  0.62350204  1.0
  Ti  Ti3526  1  0.43369276  0.78745513  0.62350204  1.0
  Ti  Ti3527  1  0.43369276  0.95412179  0.62350204  1.0
  Ti  Ti3528  1  0.52460185  0.12078846  0.62350204  1.0
  Ti  Ti3529  1  0.52460185  0.28745513  0.62350204  1.0
  Ti  Ti3530  1  0.52460185  0.45412179  0.62350204  1.0
  Ti  Ti3531  1  0.52460185  0.62078846  0.62350204  1.0
  Ti  Ti3532  1  0.52460185  0.78745513  0.62350204  1.0
  Ti  Ti3533  1  0.52460185  0.95412179  0.62350204  1.0
  Ti  Ti3534  1  0.61551094  0.12078846  0.62350204  1.0
  Ti  Ti3535  1  0.61551094  0.28745513  0.62350204  1.0
  Ti  Ti3536  1  0.61551094  0.45412179  0.62350204  1.0
  Ti  Ti3537  1  0.61551094  0.62078846  0.62350204  1.0
  Ti  Ti3538  1  0.61551094  0.78745513  0.62350204  1.0
  Ti  Ti3539  1  0.61551094  0.95412179  0.62350204  1.0
  Ti  Ti3540  1  0.70642003  0.12078846  0.62350204  1.0
  Ti  Ti3541  1  0.70642003  0.28745513  0.62350204  1.0
  Ti  Ti3542  1  0.70642003  0.45412179  0.62350204  1.0
  Ti  Ti3543  1  0.70642003  0.62078846  0.62350204  1.0
  Ti  Ti3544  1  0.70642003  0.78745513  0.62350204  1.0
  Ti  Ti3545  1  0.70642003  0.95412179  0.62350204  1.0
  Ti  Ti3546  1  0.79732912  0.12078846  0.62350204  1.0
  Ti  Ti3547  1  0.79732912  0.28745513  0.62350204  1.0
  Ti  Ti3548  1  0.79732912  0.45412179  0.62350204  1.0
  Ti  Ti3549  1  0.79732912  0.62078846  0.62350204  1.0
  Ti  Ti3550  1  0.79732912  0.78745513  0.62350204  1.0
  Ti  Ti3551  1  0.79732912  0.95412179  0.62350204  1.0
  Ti  Ti3552  1  0.88823821  0.12078846  0.62350204  1.0
  Ti  Ti3553  1  0.88823821  0.28745513  0.62350204  1.0
  Ti  Ti3554  1  0.88823821  0.45412179  0.62350204  1.0
  Ti  Ti3555  1  0.88823821  0.62078846  0.62350204  1.0
  Ti  Ti3556  1  0.88823821  0.78745513  0.62350204  1.0
  Ti  Ti3557  1  0.88823821  0.95412179  0.62350204  1.0
  Ti  Ti3558  1  0.97914730  0.12078846  0.62350204  1.0
  Ti  Ti3559  1  0.97914730  0.28745513  0.62350204  1.0
  Ti  Ti3560  1  0.97914730  0.45412179  0.62350204  1.0
  Ti  Ti3561  1  0.97914730  0.62078846  0.62350204  1.0
  Ti  Ti3562  1  0.97914730  0.78745513  0.62350204  1.0
  Ti  Ti3563  1  0.97914730  0.95412179  0.62350204  1.0
  Ti  Ti3564  1  0.03267081  0.01628157  0.56190651  1.0
  Ti  Ti3565  1  0.03267081  0.18294823  0.56190651  1.0
  Ti  Ti3566  1  0.03267081  0.34961490  0.56190651  1.0
  Ti  Ti3567  1  0.03267081  0.51628157  0.56190651  1.0
  Ti  Ti3568  1  0.03267081  0.68294823  0.56190651  1.0
  Ti  Ti3569  1  0.03267081  0.84961490  0.56190651  1.0
  Ti  Ti3570  1  0.12357990  0.01628157  0.56190651  1.0
  Ti  Ti3571  1  0.12357990  0.18294823  0.56190651  1.0
  Ti  Ti3572  1  0.12357990  0.34961490  0.56190651  1.0
  Ti  Ti3573  1  0.12357990  0.51628157  0.56190651  1.0
  Ti  Ti3574  1  0.12357990  0.68294823  0.56190651  1.0
  Ti  Ti3575  1  0.12357990  0.84961490  0.56190651  1.0
  Ti  Ti3576  1  0.21448899  0.01628157  0.56190651  1.0
  Ti  Ti3577  1  0.21448899  0.18294823  0.56190651  1.0
  Ti  Ti3578  1  0.21448899  0.34961490  0.56190651  1.0
  Ti  Ti3579  1  0.21448899  0.51628157  0.56190651  1.0
  Ti  Ti3580  1  0.21448899  0.68294823  0.56190651  1.0
  Ti  Ti3581  1  0.21448899  0.84961490  0.56190651  1.0
  Ti  Ti3582  1  0.30539808  0.01628157  0.56190651  1.0
  Ti  Ti3583  1  0.30539808  0.18294823  0.56190651  1.0
  Ti  Ti3584  1  0.30539808  0.34961490  0.56190651  1.0
  Ti  Ti3585  1  0.30539808  0.51628157  0.56190651  1.0
  Ti  Ti3586  1  0.30539808  0.68294823  0.56190651  1.0
  Ti  Ti3587  1  0.30539808  0.84961490  0.56190651  1.0
  Ti  Ti3588  1  0.39630717  0.01628157  0.56190651  1.0
  Ti  Ti3589  1  0.39630717  0.18294823  0.56190651  1.0
  Ti  Ti3590  1  0.39630717  0.34961490  0.56190651  1.0
  Ti  Ti3591  1  0.39630717  0.51628157  0.56190651  1.0
  Ti  Ti3592  1  0.39630717  0.68294823  0.56190651  1.0
  Ti  Ti3593  1  0.39630717  0.84961490  0.56190651  1.0
  Ti  Ti3594  1  0.48721626  0.01628157  0.56190651  1.0
  Ti  Ti3595  1  0.48721626  0.18294823  0.56190651  1.0
  Ti  Ti3596  1  0.48721626  0.34961490  0.56190651  1.0
  Ti  Ti3597  1  0.48721626  0.51628157  0.56190651  1.0
  Ti  Ti3598  1  0.48721626  0.68294823  0.56190651  1.0
  Ti  Ti3599  1  0.48721626  0.84961490  0.56190651  1.0
  Ti  Ti3600  1  0.57812535  0.01628157  0.56190651  1.0
  Ti  Ti3601  1  0.57812535  0.18294823  0.56190651  1.0
  Ti  Ti3602  1  0.57812535  0.34961490  0.56190651  1.0
  Ti  Ti3603  1  0.57812535  0.51628157  0.56190651  1.0
  Ti  Ti3604  1  0.57812535  0.68294823  0.56190651  1.0
  Ti  Ti3605  1  0.57812535  0.84961490  0.56190651  1.0
  Ti  Ti3606  1  0.66903444  0.01628157  0.56190651  1.0
  Ti  Ti3607  1  0.66903444  0.18294823  0.56190651  1.0
  Ti  Ti3608  1  0.66903444  0.34961490  0.56190651  1.0
  Ti  Ti3609  1  0.66903444  0.51628157  0.56190651  1.0
  Ti  Ti3610  1  0.66903444  0.68294823  0.56190651  1.0
  Ti  Ti3611  1  0.66903444  0.84961490  0.56190651  1.0
  Ti  Ti3612  1  0.75994354  0.01628157  0.56190651  1.0
  Ti  Ti3613  1  0.75994354  0.18294823  0.56190651  1.0
  Ti  Ti3614  1  0.75994354  0.34961490  0.56190651  1.0
  Ti  Ti3615  1  0.75994354  0.51628157  0.56190651  1.0
  Ti  Ti3616  1  0.75994354  0.68294823  0.56190651  1.0
  Ti  Ti3617  1  0.75994354  0.84961490  0.56190651  1.0
  Ti  Ti3618  1  0.85085263  0.01628157  0.56190651  1.0
  Ti  Ti3619  1  0.85085263  0.18294823  0.56190651  1.0
  Ti  Ti3620  1  0.85085263  0.34961490  0.56190651  1.0
  Ti  Ti3621  1  0.85085263  0.51628157  0.56190651  1.0
  Ti  Ti3622  1  0.85085263  0.68294823  0.56190651  1.0
  Ti  Ti3623  1  0.85085263  0.84961490  0.56190651  1.0
  Ti  Ti3624  1  0.94176172  0.01628157  0.56190651  1.0
  Ti  Ti3625  1  0.94176172  0.18294823  0.56190651  1.0
  Ti  Ti3626  1  0.94176172  0.34961490  0.56190651  1.0
  Ti  Ti3627  1  0.94176172  0.51628157  0.56190651  1.0
  Ti  Ti3628  1  0.94176172  0.68294823  0.56190651  1.0
  Ti  Ti3629  1  0.94176172  0.84961490  0.56190651  1.0
  Ti  Ti3630  1  0.07812535  0.00437681  0.63333508  1.0
  Ti  Ti3631  1  0.07812535  0.17104347  0.63333508  1.0
  Ti  Ti3632  1  0.07812535  0.33771014  0.63333508  1.0
  Ti  Ti3633  1  0.07812535  0.50437681  0.63333508  1.0
  Ti  Ti3634  1  0.07812535  0.67104347  0.63333508  1.0
  Ti  Ti3635  1  0.07812535  0.83771014  0.63333508  1.0
  Ti  Ti3636  1  0.16903444  0.00437681  0.63333508  1.0
  Ti  Ti3637  1  0.16903444  0.17104347  0.63333508  1.0
  Ti  Ti3638  1  0.16903444  0.33771014  0.63333508  1.0
  Ti  Ti3639  1  0.16903444  0.50437681  0.63333508  1.0
  Ti  Ti3640  1  0.16903444  0.67104347  0.63333508  1.0
  Ti  Ti3641  1  0.16903444  0.83771014  0.63333508  1.0
  Ti  Ti3642  1  0.25994354  0.00437681  0.63333508  1.0
  Ti  Ti3643  1  0.25994354  0.17104347  0.63333508  1.0
  Ti  Ti3644  1  0.25994354  0.33771014  0.63333508  1.0
  Ti  Ti3645  1  0.25994354  0.50437681  0.63333508  1.0
  Ti  Ti3646  1  0.25994354  0.67104347  0.63333508  1.0
  Ti  Ti3647  1  0.25994354  0.83771014  0.63333508  1.0
  Ti  Ti3648  1  0.35085263  0.00437681  0.63333508  1.0
  Ti  Ti3649  1  0.35085263  0.17104347  0.63333508  1.0
  Ti  Ti3650  1  0.35085263  0.33771014  0.63333508  1.0
  Ti  Ti3651  1  0.35085263  0.50437681  0.63333508  1.0
  Ti  Ti3652  1  0.35085263  0.67104347  0.63333508  1.0
  Ti  Ti3653  1  0.35085263  0.83771014  0.63333508  1.0
  Ti  Ti3654  1  0.44176172  0.00437681  0.63333508  1.0
  Ti  Ti3655  1  0.44176172  0.17104347  0.63333508  1.0
  Ti  Ti3656  1  0.44176172  0.33771014  0.63333508  1.0
  Ti  Ti3657  1  0.44176172  0.50437681  0.63333508  1.0
  Ti  Ti3658  1  0.44176172  0.67104347  0.63333508  1.0
  Ti  Ti3659  1  0.44176172  0.83771014  0.63333508  1.0
  Ti  Ti3660  1  0.53267081  0.00437681  0.63333508  1.0
  Ti  Ti3661  1  0.53267081  0.17104347  0.63333508  1.0
  Ti  Ti3662  1  0.53267081  0.33771014  0.63333508  1.0
  Ti  Ti3663  1  0.53267081  0.50437681  0.63333508  1.0
  Ti  Ti3664  1  0.53267081  0.67104347  0.63333508  1.0
  Ti  Ti3665  1  0.53267081  0.83771014  0.63333508  1.0
  Ti  Ti3666  1  0.62357990  0.00437681  0.63333508  1.0
  Ti  Ti3667  1  0.62357990  0.17104347  0.63333508  1.0
  Ti  Ti3668  1  0.62357990  0.33771014  0.63333508  1.0
  Ti  Ti3669  1  0.62357990  0.50437681  0.63333508  1.0
  Ti  Ti3670  1  0.62357990  0.67104347  0.63333508  1.0
  Ti  Ti3671  1  0.62357990  0.83771014  0.63333508  1.0
  Ti  Ti3672  1  0.71448899  0.00437681  0.63333508  1.0
  Ti  Ti3673  1  0.71448899  0.17104347  0.63333508  1.0
  Ti  Ti3674  1  0.71448899  0.33771014  0.63333508  1.0
  Ti  Ti3675  1  0.71448899  0.50437681  0.63333508  1.0
  Ti  Ti3676  1  0.71448899  0.67104347  0.63333508  1.0
  Ti  Ti3677  1  0.71448899  0.83771014  0.63333508  1.0
  Ti  Ti3678  1  0.80539808  0.00437681  0.63333508  1.0
  Ti  Ti3679  1  0.80539808  0.17104347  0.63333508  1.0
  Ti  Ti3680  1  0.80539808  0.33771014  0.63333508  1.0
  Ti  Ti3681  1  0.80539808  0.50437681  0.63333508  1.0
  Ti  Ti3682  1  0.80539808  0.67104347  0.63333508  1.0
  Ti  Ti3683  1  0.80539808  0.83771014  0.63333508  1.0
  Ti  Ti3684  1  0.89630717  0.00437681  0.63333508  1.0
  Ti  Ti3685  1  0.89630717  0.17104347  0.63333508  1.0
  Ti  Ti3686  1  0.89630717  0.33771014  0.63333508  1.0
  Ti  Ti3687  1  0.89630717  0.50437681  0.63333508  1.0
  Ti  Ti3688  1  0.89630717  0.67104347  0.63333508  1.0
  Ti  Ti3689  1  0.89630717  0.83771014  0.63333508  1.0
  Ti  Ti3690  1  0.98721626  0.00437681  0.63333508  1.0
  Ti  Ti3691  1  0.98721626  0.17104347  0.63333508  1.0
  Ti  Ti3692  1  0.98721626  0.33771014  0.63333508  1.0
  Ti  Ti3693  1  0.98721626  0.50437681  0.63333508  1.0
  Ti  Ti3694  1  0.98721626  0.67104347  0.63333508  1.0
  Ti  Ti3695  1  0.98721626  0.83771014  0.63333508  1.0
  Ti  Ti3696  1  0.08439766  0.05920694  0.57370224  1.0
  Ti  Ti3697  1  0.08439766  0.22587361  0.57370224  1.0
  Ti  Ti3698  1  0.08439766  0.39254028  0.57370224  1.0
  Ti  Ti3699  1  0.08439766  0.55920694  0.57370224  1.0
  Ti  Ti3700  1  0.08439766  0.72587361  0.57370224  1.0
  Ti  Ti3701  1  0.08439766  0.89254028  0.57370224  1.0
  Ti  Ti3702  1  0.17530675  0.05920694  0.57370224  1.0
  Ti  Ti3703  1  0.17530675  0.22587361  0.57370224  1.0
  Ti  Ti3704  1  0.17530675  0.39254028  0.57370224  1.0
  Ti  Ti3705  1  0.17530675  0.55920694  0.57370224  1.0
  Ti  Ti3706  1  0.17530675  0.72587361  0.57370224  1.0
  Ti  Ti3707  1  0.17530675  0.89254028  0.57370224  1.0
  Ti  Ti3708  1  0.26621584  0.05920694  0.57370224  1.0
  Ti  Ti3709  1  0.26621584  0.22587361  0.57370224  1.0
  Ti  Ti3710  1  0.26621584  0.39254028  0.57370224  1.0
  Ti  Ti3711  1  0.26621584  0.55920694  0.57370224  1.0
  Ti  Ti3712  1  0.26621584  0.72587361  0.57370224  1.0
  Ti  Ti3713  1  0.26621584  0.89254028  0.57370224  1.0
  Ti  Ti3714  1  0.35712493  0.05920694  0.57370224  1.0
  Ti  Ti3715  1  0.35712493  0.22587361  0.57370224  1.0
  Ti  Ti3716  1  0.35712493  0.39254028  0.57370224  1.0
  Ti  Ti3717  1  0.35712493  0.55920694  0.57370224  1.0
  Ti  Ti3718  1  0.35712493  0.72587361  0.57370224  1.0
  Ti  Ti3719  1  0.35712493  0.89254028  0.57370224  1.0
  Ti  Ti3720  1  0.44803402  0.05920694  0.57370224  1.0
  Ti  Ti3721  1  0.44803402  0.22587361  0.57370224  1.0
  Ti  Ti3722  1  0.44803402  0.39254028  0.57370224  1.0
  Ti  Ti3723  1  0.44803402  0.55920694  0.57370224  1.0
  Ti  Ti3724  1  0.44803402  0.72587361  0.57370224  1.0
  Ti  Ti3725  1  0.44803402  0.89254028  0.57370224  1.0
  Ti  Ti3726  1  0.53894311  0.05920694  0.57370224  1.0
  Ti  Ti3727  1  0.53894311  0.22587361  0.57370224  1.0
  Ti  Ti3728  1  0.53894311  0.39254028  0.57370224  1.0
  Ti  Ti3729  1  0.53894311  0.55920694  0.57370224  1.0
  Ti  Ti3730  1  0.53894311  0.72587361  0.57370224  1.0
  Ti  Ti3731  1  0.53894311  0.89254028  0.57370224  1.0
  Ti  Ti3732  1  0.62985220  0.05920694  0.57370224  1.0
  Ti  Ti3733  1  0.62985220  0.22587361  0.57370224  1.0
  Ti  Ti3734  1  0.62985220  0.39254028  0.57370224  1.0
  Ti  Ti3735  1  0.62985220  0.55920694  0.57370224  1.0
  Ti  Ti3736  1  0.62985220  0.72587361  0.57370224  1.0
  Ti  Ti3737  1  0.62985220  0.89254028  0.57370224  1.0
  Ti  Ti3738  1  0.72076129  0.05920694  0.57370224  1.0
  Ti  Ti3739  1  0.72076129  0.22587361  0.57370224  1.0
  Ti  Ti3740  1  0.72076129  0.39254028  0.57370224  1.0
  Ti  Ti3741  1  0.72076129  0.55920694  0.57370224  1.0
  Ti  Ti3742  1  0.72076129  0.72587361  0.57370224  1.0
  Ti  Ti3743  1  0.72076129  0.89254028  0.57370224  1.0
  Ti  Ti3744  1  0.81167038  0.05920694  0.57370224  1.0
  Ti  Ti3745  1  0.81167038  0.22587361  0.57370224  1.0
  Ti  Ti3746  1  0.81167038  0.39254028  0.57370224  1.0
  Ti  Ti3747  1  0.81167038  0.55920694  0.57370224  1.0
  Ti  Ti3748  1  0.81167038  0.72587361  0.57370224  1.0
  Ti  Ti3749  1  0.81167038  0.89254028  0.57370224  1.0
  Ti  Ti3750  1  0.90257947  0.05920694  0.57370224  1.0
  Ti  Ti3751  1  0.90257948  0.22587361  0.57370224  1.0
  Ti  Ti3752  1  0.90257948  0.39254028  0.57370224  1.0
  Ti  Ti3753  1  0.90257947  0.55920694  0.57370224  1.0
  Ti  Ti3754  1  0.90257948  0.72587361  0.57370224  1.0
  Ti  Ti3755  1  0.90257948  0.89254028  0.57370224  1.0
  Ti  Ti3756  1  0.99348857  0.05920694  0.57370224  1.0
  Ti  Ti3757  1  0.99348857  0.22587361  0.57370224  1.0
  Ti  Ti3758  1  0.99348857  0.39254028  0.57370224  1.0
  Ti  Ti3759  1  0.99348857  0.55920694  0.57370224  1.0
  Ti  Ti3760  1  0.99348857  0.72587361  0.57370224  1.0
  Ti  Ti3761  1  0.99348857  0.89254028  0.57370224  1.0
  Ti  Ti3762  1  0.03894311  0.07111171  0.50227367  1.0
  Ti  Ti3763  1  0.03894311  0.23777837  0.50227367  1.0
  Ti  Ti3764  1  0.03894311  0.40444504  0.50227367  1.0
  Ti  Ti3765  1  0.03894311  0.57111171  0.50227367  1.0
  Ti  Ti3766  1  0.03894311  0.73777837  0.50227367  1.0
  Ti  Ti3767  1  0.03894311  0.90444504  0.50227367  1.0
  Ti  Ti3768  1  0.12985220  0.07111171  0.50227367  1.0
  Ti  Ti3769  1  0.12985220  0.23777837  0.50227367  1.0
  Ti  Ti3770  1  0.12985220  0.40444504  0.50227367  1.0
  Ti  Ti3771  1  0.12985220  0.57111171  0.50227367  1.0
  Ti  Ti3772  1  0.12985220  0.73777837  0.50227367  1.0
  Ti  Ti3773  1  0.12985220  0.90444504  0.50227367  1.0
  Ti  Ti3774  1  0.22076129  0.07111171  0.50227367  1.0
  Ti  Ti3775  1  0.22076129  0.23777837  0.50227367  1.0
  Ti  Ti3776  1  0.22076129  0.40444504  0.50227367  1.0
  Ti  Ti3777  1  0.22076129  0.57111171  0.50227367  1.0
  Ti  Ti3778  1  0.22076129  0.73777837  0.50227367  1.0
  Ti  Ti3779  1  0.22076129  0.90444504  0.50227367  1.0
  Ti  Ti3780  1  0.31167038  0.07111171  0.50227367  1.0
  Ti  Ti3781  1  0.31167038  0.23777837  0.50227367  1.0
  Ti  Ti3782  1  0.31167038  0.40444504  0.50227367  1.0
  Ti  Ti3783  1  0.31167038  0.57111171  0.50227367  1.0
  Ti  Ti3784  1  0.31167038  0.73777837  0.50227367  1.0
  Ti  Ti3785  1  0.31167038  0.90444504  0.50227367  1.0
  Ti  Ti3786  1  0.40257948  0.07111171  0.50227367  1.0
  Ti  Ti3787  1  0.40257948  0.23777837  0.50227367  1.0
  Ti  Ti3788  1  0.40257948  0.40444504  0.50227367  1.0
  Ti  Ti3789  1  0.40257948  0.57111171  0.50227367  1.0
  Ti  Ti3790  1  0.40257947  0.73777837  0.50227367  1.0
  Ti  Ti3791  1  0.40257947  0.90444504  0.50227367  1.0
  Ti  Ti3792  1  0.49348857  0.07111171  0.50227367  1.0
  Ti  Ti3793  1  0.49348857  0.23777837  0.50227367  1.0
  Ti  Ti3794  1  0.49348857  0.40444504  0.50227367  1.0
  Ti  Ti3795  1  0.49348857  0.57111171  0.50227367  1.0
  Ti  Ti3796  1  0.49348857  0.73777837  0.50227367  1.0
  Ti  Ti3797  1  0.49348857  0.90444504  0.50227367  1.0
  Ti  Ti3798  1  0.58439766  0.07111171  0.50227367  1.0
  Ti  Ti3799  1  0.58439766  0.23777837  0.50227367  1.0
  Ti  Ti3800  1  0.58439766  0.40444504  0.50227367  1.0
  Ti  Ti3801  1  0.58439766  0.57111171  0.50227367  1.0
  Ti  Ti3802  1  0.58439766  0.73777837  0.50227367  1.0
  Ti  Ti3803  1  0.58439766  0.90444504  0.50227367  1.0
  Ti  Ti3804  1  0.67530675  0.07111171  0.50227367  1.0
  Ti  Ti3805  1  0.67530675  0.23777837  0.50227367  1.0
  Ti  Ti3806  1  0.67530675  0.40444504  0.50227367  1.0
  Ti  Ti3807  1  0.67530675  0.57111171  0.50227367  1.0
  Ti  Ti3808  1  0.67530675  0.73777837  0.50227367  1.0
  Ti  Ti3809  1  0.67530675  0.90444504  0.50227367  1.0
  Ti  Ti3810  1  0.76621584  0.07111171  0.50227367  1.0
  Ti  Ti3811  1  0.76621584  0.23777837  0.50227367  1.0
  Ti  Ti3812  1  0.76621584  0.40444504  0.50227367  1.0
  Ti  Ti3813  1  0.76621584  0.57111171  0.50227367  1.0
  Ti  Ti3814  1  0.76621584  0.73777837  0.50227367  1.0
  Ti  Ti3815  1  0.76621584  0.90444504  0.50227367  1.0
  Ti  Ti3816  1  0.85712493  0.07111171  0.50227367  1.0
  Ti  Ti3817  1  0.85712493  0.23777837  0.50227367  1.0
  Ti  Ti3818  1  0.85712493  0.40444504  0.50227367  1.0
  Ti  Ti3819  1  0.85712493  0.57111171  0.50227367  1.0
  Ti  Ti3820  1  0.85712493  0.73777837  0.50227367  1.0
  Ti  Ti3821  1  0.85712493  0.90444504  0.50227367  1.0
  Ti  Ti3822  1  0.94803402  0.07111171  0.50227367  1.0
  Ti  Ti3823  1  0.94803402  0.23777837  0.50227367  1.0
  Ti  Ti3824  1  0.94803402  0.40444504  0.50227367  1.0
  Ti  Ti3825  1  0.94803402  0.57111171  0.50227367  1.0
  Ti  Ti3826  1  0.94803402  0.73777837  0.50227367  1.0
  Ti  Ti3827  1  0.94803402  0.90444504  0.50227367  1.0
  Ti  Ti3828  1  0.02688851  0.12279285  0.62528771  1.0
  Ti  Ti3829  1  0.02688851  0.28945952  0.62528771  1.0
  Ti  Ti3830  1  0.02688851  0.45612618  0.62528771  1.0
  Ti  Ti3831  1  0.02688851  0.62279285  0.62528771  1.0
  Ti  Ti3832  1  0.02688851  0.78945952  0.62528771  1.0
  Ti  Ti3833  1  0.02688851  0.95612618  0.62528771  1.0
  Ti  Ti3834  1  0.11779760  0.12279285  0.62528771  1.0
  Ti  Ti3835  1  0.11779760  0.28945952  0.62528771  1.0
  Ti  Ti3836  1  0.11779760  0.45612618  0.62528771  1.0
  Ti  Ti3837  1  0.11779760  0.62279285  0.62528771  1.0
  Ti  Ti3838  1  0.11779760  0.78945952  0.62528771  1.0
  Ti  Ti3839  1  0.11779760  0.95612618  0.62528771  1.0
  Ti  Ti3840  1  0.20870669  0.12279285  0.62528771  1.0
  Ti  Ti3841  1  0.20870669  0.28945952  0.62528771  1.0
  Ti  Ti3842  1  0.20870669  0.45612618  0.62528771  1.0
  Ti  Ti3843  1  0.20870669  0.62279285  0.62528771  1.0
  Ti  Ti3844  1  0.20870669  0.78945952  0.62528771  1.0
  Ti  Ti3845  1  0.20870669  0.95612618  0.62528771  1.0
  Ti  Ti3846  1  0.29961578  0.12279285  0.62528771  1.0
  Ti  Ti3847  1  0.29961578  0.28945952  0.62528771  1.0
  Ti  Ti3848  1  0.29961578  0.45612618  0.62528771  1.0
  Ti  Ti3849  1  0.29961578  0.62279285  0.62528771  1.0
  Ti  Ti3850  1  0.29961578  0.78945952  0.62528771  1.0
  Ti  Ti3851  1  0.29961578  0.95612618  0.62528771  1.0
  Ti  Ti3852  1  0.39052487  0.12279285  0.62528771  1.0
  Ti  Ti3853  1  0.39052487  0.28945952  0.62528771  1.0
  Ti  Ti3854  1  0.39052487  0.45612618  0.62528771  1.0
  Ti  Ti3855  1  0.39052487  0.62279285  0.62528771  1.0
  Ti  Ti3856  1  0.39052487  0.78945952  0.62528771  1.0
  Ti  Ti3857  1  0.39052487  0.95612618  0.62528771  1.0
  Ti  Ti3858  1  0.48143396  0.12279285  0.62528771  1.0
  Ti  Ti3859  1  0.48143396  0.28945952  0.62528771  1.0
  Ti  Ti3860  1  0.48143396  0.45612618  0.62528771  1.0
  Ti  Ti3861  1  0.48143396  0.62279285  0.62528771  1.0
  Ti  Ti3862  1  0.48143396  0.78945952  0.62528771  1.0
  Ti  Ti3863  1  0.48143396  0.95612618  0.62528771  1.0
  Ti  Ti3864  1  0.57234305  0.12279285  0.62528771  1.0
  Ti  Ti3865  1  0.57234305  0.28945952  0.62528771  1.0
  Ti  Ti3866  1  0.57234305  0.45612618  0.62528771  1.0
  Ti  Ti3867  1  0.57234305  0.62279285  0.62528771  1.0
  Ti  Ti3868  1  0.57234305  0.78945952  0.62528771  1.0
  Ti  Ti3869  1  0.57234305  0.95612618  0.62528771  1.0
  Ti  Ti3870  1  0.66325214  0.12279285  0.62528771  1.0
  Ti  Ti3871  1  0.66325214  0.28945952  0.62528771  1.0
  Ti  Ti3872  1  0.66325214  0.45612618  0.62528771  1.0
  Ti  Ti3873  1  0.66325214  0.62279285  0.62528771  1.0
  Ti  Ti3874  1  0.66325214  0.78945952  0.62528771  1.0
  Ti  Ti3875  1  0.66325214  0.95612618  0.62528771  1.0
  Ti  Ti3876  1  0.75416123  0.12279285  0.62528771  1.0
  Ti  Ti3877  1  0.75416123  0.28945952  0.62528771  1.0
  Ti  Ti3878  1  0.75416123  0.45612618  0.62528771  1.0
  Ti  Ti3879  1  0.75416123  0.62279285  0.62528771  1.0
  Ti  Ti3880  1  0.75416123  0.78945952  0.62528771  1.0
  Ti  Ti3881  1  0.75416123  0.95612618  0.62528771  1.0
  Ti  Ti3882  1  0.84507032  0.12279285  0.62528771  1.0
  Ti  Ti3883  1  0.84507032  0.28945952  0.62528771  1.0
  Ti  Ti3884  1  0.84507032  0.45612618  0.62528771  1.0
  Ti  Ti3885  1  0.84507032  0.62279285  0.62528771  1.0
  Ti  Ti3886  1  0.84507032  0.78945952  0.62528771  1.0
  Ti  Ti3887  1  0.84507032  0.95612618  0.62528771  1.0
  Ti  Ti3888  1  0.93597941  0.12279285  0.62528771  1.0
  Ti  Ti3889  1  0.93597941  0.28945952  0.62528771  1.0
  Ti  Ti3890  1  0.93597941  0.45612618  0.62528771  1.0
  Ti  Ti3891  1  0.93597941  0.62279285  0.62528771  1.0
  Ti  Ti3892  1  0.93597941  0.78945952  0.62528771  1.0
  Ti  Ti3893  1  0.93597941  0.95612618  0.62528771  1.0
  Ti  Ti3894  1  0.07234305  0.13469761  0.55385914  1.0
  Ti  Ti3895  1  0.07234305  0.30136428  0.55385914  1.0
  Ti  Ti3896  1  0.07234305  0.46803094  0.55385914  1.0
  Ti  Ti3897  1  0.07234305  0.63469761  0.55385914  1.0
  Ti  Ti3898  1  0.07234305  0.80136428  0.55385914  1.0
  Ti  Ti3899  1  0.07234305  0.96803094  0.55385914  1.0
  Ti  Ti3900  1  0.16325214  0.13469761  0.55385914  1.0
  Ti  Ti3901  1  0.16325214  0.30136428  0.55385914  1.0
  Ti  Ti3902  1  0.16325214  0.46803094  0.55385914  1.0
  Ti  Ti3903  1  0.16325214  0.63469761  0.55385914  1.0
  Ti  Ti3904  1  0.16325214  0.80136428  0.55385914  1.0
  Ti  Ti3905  1  0.16325214  0.96803094  0.55385914  1.0
  Ti  Ti3906  1  0.25416123  0.13469761  0.55385914  1.0
  Ti  Ti3907  1  0.25416123  0.30136428  0.55385914  1.0
  Ti  Ti3908  1  0.25416123  0.46803094  0.55385914  1.0
  Ti  Ti3909  1  0.25416123  0.63469761  0.55385914  1.0
  Ti  Ti3910  1  0.25416123  0.80136428  0.55385914  1.0
  Ti  Ti3911  1  0.25416123  0.96803094  0.55385914  1.0
  Ti  Ti3912  1  0.34507032  0.13469761  0.55385914  1.0
  Ti  Ti3913  1  0.34507032  0.30136428  0.55385914  1.0
  Ti  Ti3914  1  0.34507032  0.46803094  0.55385914  1.0
  Ti  Ti3915  1  0.34507032  0.63469761  0.55385914  1.0
  Ti  Ti3916  1  0.34507032  0.80136428  0.55385914  1.0
  Ti  Ti3917  1  0.34507032  0.96803094  0.55385914  1.0
  Ti  Ti3918  1  0.43597941  0.13469761  0.55385914  1.0
  Ti  Ti3919  1  0.43597941  0.30136428  0.55385914  1.0
  Ti  Ti3920  1  0.43597941  0.46803094  0.55385914  1.0
  Ti  Ti3921  1  0.43597941  0.63469761  0.55385914  1.0
  Ti  Ti3922  1  0.43597941  0.80136428  0.55385914  1.0
  Ti  Ti3923  1  0.43597941  0.96803094  0.55385914  1.0
  Ti  Ti3924  1  0.52688851  0.13469761  0.55385914  1.0
  Ti  Ti3925  1  0.52688851  0.30136428  0.55385914  1.0
  Ti  Ti3926  1  0.52688851  0.46803094  0.55385914  1.0
  Ti  Ti3927  1  0.52688851  0.63469761  0.55385914  1.0
  Ti  Ti3928  1  0.52688851  0.80136428  0.55385914  1.0
  Ti  Ti3929  1  0.52688851  0.96803094  0.55385914  1.0
  Ti  Ti3930  1  0.61779760  0.13469761  0.55385914  1.0
  Ti  Ti3931  1  0.61779760  0.30136428  0.55385914  1.0
  Ti  Ti3932  1  0.61779760  0.46803094  0.55385914  1.0
  Ti  Ti3933  1  0.61779760  0.63469761  0.55385914  1.0
  Ti  Ti3934  1  0.61779760  0.80136428  0.55385914  1.0
  Ti  Ti3935  1  0.61779760  0.96803094  0.55385914  1.0
  Ti  Ti3936  1  0.70870669  0.13469761  0.55385914  1.0
  Ti  Ti3937  1  0.70870669  0.30136428  0.55385914  1.0
  Ti  Ti3938  1  0.70870669  0.46803094  0.55385914  1.0
  Ti  Ti3939  1  0.70870669  0.63469761  0.55385914  1.0
  Ti  Ti3940  1  0.70870669  0.80136428  0.55385914  1.0
  Ti  Ti3941  1  0.70870669  0.96803094  0.55385914  1.0
  Ti  Ti3942  1  0.79961578  0.13469761  0.55385914  1.0
  Ti  Ti3943  1  0.79961578  0.30136428  0.55385914  1.0
  Ti  Ti3944  1  0.79961578  0.46803094  0.55385914  1.0
  Ti  Ti3945  1  0.79961578  0.63469761  0.55385914  1.0
  Ti  Ti3946  1  0.79961578  0.80136428  0.55385914  1.0
  Ti  Ti3947  1  0.79961578  0.96803094  0.55385914  1.0
  Ti  Ti3948  1  0.89052487  0.13469761  0.55385914  1.0
  Ti  Ti3949  1  0.89052487  0.30136428  0.55385914  1.0
  Ti  Ti3950  1  0.89052487  0.46803094  0.55385914  1.0
  Ti  Ti3951  1  0.89052487  0.63469761  0.55385914  1.0
  Ti  Ti3952  1  0.89052487  0.80136428  0.55385914  1.0
  Ti  Ti3953  1  0.89052487  0.96803094  0.55385914  1.0
  Ti  Ti3954  1  0.98143396  0.13469761  0.55385914  1.0
  Ti  Ti3955  1  0.98143396  0.30136428  0.55385914  1.0
  Ti  Ti3956  1  0.98143396  0.46803094  0.55385914  1.0
  Ti  Ti3957  1  0.98143396  0.63469761  0.55385914  1.0
  Ti  Ti3958  1  0.98143396  0.80136428  0.55385914  1.0
  Ti  Ti3959  1  0.98143396  0.96803094  0.55385914  1.0
  Ti  Ti3960  1  0.05966095  0.02962764  0.60518561  1.0
  Ti  Ti3961  1  0.05966095  0.19629431  0.60518561  1.0
  Ti  Ti3962  1  0.05966095  0.36296098  0.60518561  1.0
  Ti  Ti3963  1  0.05966095  0.52962764  0.60518561  1.0
  Ti  Ti3964  1  0.05966095  0.69629431  0.60518561  1.0
  Ti  Ti3965  1  0.05966095  0.86296098  0.60518561  1.0
  Ti  Ti3966  1  0.15057004  0.02962764  0.60518561  1.0
  Ti  Ti3967  1  0.15057004  0.19629431  0.60518561  1.0
  Ti  Ti3968  1  0.15057004  0.36296098  0.60518561  1.0
  Ti  Ti3969  1  0.15057004  0.52962764  0.60518561  1.0
  Ti  Ti3970  1  0.15057004  0.69629431  0.60518561  1.0
  Ti  Ti3971  1  0.15057004  0.86296098  0.60518561  1.0
  Ti  Ti3972  1  0.24147913  0.02962764  0.60518561  1.0
  Ti  Ti3973  1  0.24147913  0.19629431  0.60518561  1.0
  Ti  Ti3974  1  0.24147913  0.36296098  0.60518561  1.0
  Ti  Ti3975  1  0.24147913  0.52962764  0.60518561  1.0
  Ti  Ti3976  1  0.24147913  0.69629431  0.60518561  1.0
  Ti  Ti3977  1  0.24147913  0.86296098  0.60518561  1.0
  Ti  Ti3978  1  0.33238822  0.02962764  0.60518561  1.0
  Ti  Ti3979  1  0.33238822  0.19629431  0.60518561  1.0
  Ti  Ti3980  1  0.33238822  0.36296098  0.60518561  1.0
  Ti  Ti3981  1  0.33238822  0.52962764  0.60518561  1.0
  Ti  Ti3982  1  0.33238822  0.69629431  0.60518561  1.0
  Ti  Ti3983  1  0.33238822  0.86296098  0.60518561  1.0
  Ti  Ti3984  1  0.42329731  0.02962764  0.60518561  1.0
  Ti  Ti3985  1  0.42329731  0.19629431  0.60518561  1.0
  Ti  Ti3986  1  0.42329731  0.36296098  0.60518561  1.0
  Ti  Ti3987  1  0.42329731  0.52962764  0.60518561  1.0
  Ti  Ti3988  1  0.42329731  0.69629431  0.60518561  1.0
  Ti  Ti3989  1  0.42329731  0.86296098  0.60518561  1.0
  Ti  Ti3990  1  0.51420640  0.02962764  0.60518561  1.0
  Ti  Ti3991  1  0.51420640  0.19629431  0.60518561  1.0
  Ti  Ti3992  1  0.51420640  0.36296098  0.60518561  1.0
  Ti  Ti3993  1  0.51420640  0.52962764  0.60518561  1.0
  Ti  Ti3994  1  0.51420640  0.69629431  0.60518561  1.0
  Ti  Ti3995  1  0.51420640  0.86296098  0.60518561  1.0
  Ti  Ti3996  1  0.60511550  0.02962764  0.60518561  1.0
  Ti  Ti3997  1  0.60511550  0.19629431  0.60518561  1.0
  Ti  Ti3998  1  0.60511550  0.36296098  0.60518561  1.0
  Ti  Ti3999  1  0.60511550  0.52962764  0.60518561  1.0
  Ti  Ti4000  1  0.60511550  0.69629431  0.60518561  1.0
  Ti  Ti4001  1  0.60511550  0.86296098  0.60518561  1.0
  Ti  Ti4002  1  0.69602459  0.02962764  0.60518561  1.0
  Ti  Ti4003  1  0.69602459  0.19629431  0.60518561  1.0
  Ti  Ti4004  1  0.69602459  0.36296098  0.60518561  1.0
  Ti  Ti4005  1  0.69602459  0.52962764  0.60518561  1.0
  Ti  Ti4006  1  0.69602459  0.69629431  0.60518561  1.0
  Ti  Ti4007  1  0.69602459  0.86296098  0.60518561  1.0
  Ti  Ti4008  1  0.78693368  0.02962764  0.60518561  1.0
  Ti  Ti4009  1  0.78693368  0.19629431  0.60518561  1.0
  Ti  Ti4010  1  0.78693368  0.36296098  0.60518561  1.0
  Ti  Ti4011  1  0.78693368  0.52962764  0.60518561  1.0
  Ti  Ti4012  1  0.78693368  0.69629431  0.60518561  1.0
  Ti  Ti4013  1  0.78693368  0.86296098  0.60518561  1.0
  Ti  Ti4014  1  0.87784277  0.02962764  0.60518561  1.0
  Ti  Ti4015  1  0.87784277  0.19629431  0.60518561  1.0
  Ti  Ti4016  1  0.87784277  0.36296098  0.60518561  1.0
  Ti  Ti4017  1  0.87784277  0.52962764  0.60518561  1.0
  Ti  Ti4018  1  0.87784277  0.69629431  0.60518561  1.0
  Ti  Ti4019  1  0.87784277  0.86296098  0.60518561  1.0
  Ti  Ti4020  1  0.96875186  0.02962764  0.60518561  1.0
  Ti  Ti4021  1  0.96875186  0.19629431  0.60518561  1.0
  Ti  Ti4022  1  0.96875186  0.36296098  0.60518561  1.0
  Ti  Ti4023  1  0.96875186  0.52962764  0.60518561  1.0
  Ti  Ti4024  1  0.96875186  0.69629431  0.60518561  1.0
  Ti  Ti4025  1  0.96875186  0.86296098  0.60518561  1.0
  Ti  Ti4026  1  0.01420640  0.04153240  0.53375703  1.0
  Ti  Ti4027  1  0.01420640  0.20819907  0.53375703  1.0
  Ti  Ti4028  1  0.01420640  0.37486574  0.53375703  1.0
  Ti  Ti4029  1  0.01420640  0.54153240  0.53375703  1.0
  Ti  Ti4030  1  0.01420640  0.70819907  0.53375703  1.0
  Ti  Ti4031  1  0.01420640  0.87486574  0.53375703  1.0
  Ti  Ti4032  1  0.10511550  0.04153240  0.53375703  1.0
  Ti  Ti4033  1  0.10511550  0.20819907  0.53375703  1.0
  Ti  Ti4034  1  0.10511550  0.37486574  0.53375703  1.0
  Ti  Ti4035  1  0.10511550  0.54153240  0.53375703  1.0
  Ti  Ti4036  1  0.10511550  0.70819907  0.53375703  1.0
  Ti  Ti4037  1  0.10511550  0.87486574  0.53375703  1.0
  Ti  Ti4038  1  0.19602459  0.04153240  0.53375703  1.0
  Ti  Ti4039  1  0.19602459  0.20819907  0.53375703  1.0
  Ti  Ti4040  1  0.19602459  0.37486574  0.53375703  1.0
  Ti  Ti4041  1  0.19602459  0.54153240  0.53375703  1.0
  Ti  Ti4042  1  0.19602459  0.70819907  0.53375703  1.0
  Ti  Ti4043  1  0.19602459  0.87486574  0.53375703  1.0
  Ti  Ti4044  1  0.28693368  0.04153240  0.53375703  1.0
  Ti  Ti4045  1  0.28693368  0.20819907  0.53375703  1.0
  Ti  Ti4046  1  0.28693368  0.37486574  0.53375703  1.0
  Ti  Ti4047  1  0.28693368  0.54153240  0.53375703  1.0
  Ti  Ti4048  1  0.28693368  0.70819907  0.53375703  1.0
  Ti  Ti4049  1  0.28693368  0.87486574  0.53375703  1.0
  Ti  Ti4050  1  0.37784277  0.04153240  0.53375703  1.0
  Ti  Ti4051  1  0.37784277  0.20819907  0.53375703  1.0
  Ti  Ti4052  1  0.37784277  0.37486574  0.53375703  1.0
  Ti  Ti4053  1  0.37784277  0.54153240  0.53375703  1.0
  Ti  Ti4054  1  0.37784277  0.70819907  0.53375703  1.0
  Ti  Ti4055  1  0.37784277  0.87486574  0.53375703  1.0
  Ti  Ti4056  1  0.46875186  0.04153240  0.53375703  1.0
  Ti  Ti4057  1  0.46875186  0.20819907  0.53375703  1.0
  Ti  Ti4058  1  0.46875186  0.37486574  0.53375703  1.0
  Ti  Ti4059  1  0.46875186  0.54153240  0.53375703  1.0
  Ti  Ti4060  1  0.46875186  0.70819907  0.53375703  1.0
  Ti  Ti4061  1  0.46875186  0.87486574  0.53375703  1.0
  Ti  Ti4062  1  0.55966095  0.04153240  0.53375703  1.0
  Ti  Ti4063  1  0.55966095  0.20819907  0.53375703  1.0
  Ti  Ti4064  1  0.55966095  0.37486574  0.53375703  1.0
  Ti  Ti4065  1  0.55966095  0.54153240  0.53375703  1.0
  Ti  Ti4066  1  0.55966095  0.70819907  0.53375703  1.0
  Ti  Ti4067  1  0.55966095  0.87486574  0.53375703  1.0
  Ti  Ti4068  1  0.65057004  0.04153240  0.53375703  1.0
  Ti  Ti4069  1  0.65057004  0.20819907  0.53375703  1.0
  Ti  Ti4070  1  0.65057004  0.37486574  0.53375703  1.0
  Ti  Ti4071  1  0.65057004  0.54153240  0.53375703  1.0
  Ti  Ti4072  1  0.65057004  0.70819907  0.53375703  1.0
  Ti  Ti4073  1  0.65057004  0.87486574  0.53375703  1.0
  Ti  Ti4074  1  0.74147913  0.04153240  0.53375703  1.0
  Ti  Ti4075  1  0.74147913  0.20819907  0.53375703  1.0
  Ti  Ti4076  1  0.74147913  0.37486574  0.53375703  1.0
  Ti  Ti4077  1  0.74147913  0.54153240  0.53375703  1.0
  Ti  Ti4078  1  0.74147913  0.70819907  0.53375703  1.0
  Ti  Ti4079  1  0.74147913  0.87486574  0.53375703  1.0
  Ti  Ti4080  1  0.83238822  0.04153240  0.53375703  1.0
  Ti  Ti4081  1  0.83238822  0.20819907  0.53375703  1.0
  Ti  Ti4082  1  0.83238822  0.37486574  0.53375703  1.0
  Ti  Ti4083  1  0.83238822  0.54153240  0.53375703  1.0
  Ti  Ti4084  1  0.83238822  0.70819907  0.53375703  1.0
  Ti  Ti4085  1  0.83238822  0.87486574  0.53375703  1.0
  Ti  Ti4086  1  0.92329731  0.04153240  0.53375703  1.0
  Ti  Ti4087  1  0.92329731  0.20819907  0.53375703  1.0
  Ti  Ti4088  1  0.92329731  0.37486574  0.53375703  1.0
  Ti  Ti4089  1  0.92329731  0.54153240  0.53375703  1.0
  Ti  Ti4090  1  0.92329731  0.70819907  0.53375703  1.0
  Ti  Ti4091  1  0.92329731  0.87486574  0.53375703  1.0
  Ti  Ti4092  1  0.06363488  0.07681539  0.61365002  1.0
  Ti  Ti4093  1  0.06363488  0.24348206  0.61365002  1.0
  Ti  Ti4094  1  0.06363488  0.41014872  0.61365002  1.0
  Ti  Ti4095  1  0.06363488  0.57681539  0.61365002  1.0
  Ti  Ti4096  1  0.06363488  0.74348206  0.61365002  1.0
  Ti  Ti4097  1  0.06363488  0.91014872  0.61365002  1.0
  Ti  Ti4098  1  0.15454397  0.07681539  0.61365002  1.0
  Ti  Ti4099  1  0.15454397  0.24348206  0.61365002  1.0
  Ti  Ti4100  1  0.15454397  0.41014872  0.61365002  1.0
  Ti  Ti4101  1  0.15454397  0.57681539  0.61365002  1.0
  Ti  Ti4102  1  0.15454397  0.74348206  0.61365002  1.0
  Ti  Ti4103  1  0.15454397  0.91014872  0.61365002  1.0
  Ti  Ti4104  1  0.24545306  0.07681539  0.61365002  1.0
  Ti  Ti4105  1  0.24545306  0.24348206  0.61365002  1.0
  Ti  Ti4106  1  0.24545306  0.41014872  0.61365002  1.0
  Ti  Ti4107  1  0.24545306  0.57681539  0.61365002  1.0
  Ti  Ti4108  1  0.24545306  0.74348206  0.61365002  1.0
  Ti  Ti4109  1  0.24545306  0.91014872  0.61365002  1.0
  Ti  Ti4110  1  0.33636215  0.07681539  0.61365002  1.0
  Ti  Ti4111  1  0.33636215  0.24348206  0.61365002  1.0
  Ti  Ti4112  1  0.33636215  0.41014872  0.61365002  1.0
  Ti  Ti4113  1  0.33636215  0.57681539  0.61365002  1.0
  Ti  Ti4114  1  0.33636215  0.74348206  0.61365002  1.0
  Ti  Ti4115  1  0.33636215  0.91014872  0.61365002  1.0
  Ti  Ti4116  1  0.42727124  0.07681539  0.61365002  1.0
  Ti  Ti4117  1  0.42727124  0.24348206  0.61365002  1.0
  Ti  Ti4118  1  0.42727124  0.41014872  0.61365002  1.0
  Ti  Ti4119  1  0.42727124  0.57681539  0.61365002  1.0
  Ti  Ti4120  1  0.42727124  0.74348206  0.61365002  1.0
  Ti  Ti4121  1  0.42727124  0.91014872  0.61365002  1.0
  Ti  Ti4122  1  0.51818033  0.07681539  0.61365002  1.0
  Ti  Ti4123  1  0.51818033  0.24348206  0.61365002  1.0
  Ti  Ti4124  1  0.51818033  0.41014872  0.61365002  1.0
  Ti  Ti4125  1  0.51818033  0.57681539  0.61365002  1.0
  Ti  Ti4126  1  0.51818033  0.74348206  0.61365002  1.0
  Ti  Ti4127  1  0.51818033  0.91014872  0.61365002  1.0
  Ti  Ti4128  1  0.60908942  0.07681539  0.61365002  1.0
  Ti  Ti4129  1  0.60908942  0.24348206  0.61365002  1.0
  Ti  Ti4130  1  0.60908942  0.41014872  0.61365002  1.0
  Ti  Ti4131  1  0.60908942  0.57681539  0.61365002  1.0
  Ti  Ti4132  1  0.60908942  0.74348206  0.61365002  1.0
  Ti  Ti4133  1  0.60908942  0.91014872  0.61365002  1.0
  Ti  Ti4134  1  0.69999851  0.07681539  0.61365002  1.0
  Ti  Ti4135  1  0.69999851  0.24348206  0.61365002  1.0
  Ti  Ti4136  1  0.69999851  0.41014872  0.61365002  1.0
  Ti  Ti4137  1  0.69999851  0.57681539  0.61365002  1.0
  Ti  Ti4138  1  0.69999851  0.74348206  0.61365002  1.0
  Ti  Ti4139  1  0.69999851  0.91014872  0.61365002  1.0
  Ti  Ti4140  1  0.79090761  0.07681539  0.61365002  1.0
  Ti  Ti4141  1  0.79090761  0.24348206  0.61365002  1.0
  Ti  Ti4142  1  0.79090761  0.41014872  0.61365002  1.0
  Ti  Ti4143  1  0.79090761  0.57681539  0.61365002  1.0
  Ti  Ti4144  1  0.79090761  0.74348206  0.61365002  1.0
  Ti  Ti4145  1  0.79090761  0.91014872  0.61365002  1.0
  Ti  Ti4146  1  0.88181670  0.07681539  0.61365002  1.0
  Ti  Ti4147  1  0.88181670  0.24348206  0.61365002  1.0
  Ti  Ti4148  1  0.88181670  0.41014872  0.61365002  1.0
  Ti  Ti4149  1  0.88181670  0.57681539  0.61365002  1.0
  Ti  Ti4150  1  0.88181670  0.74348206  0.61365002  1.0
  Ti  Ti4151  1  0.88181670  0.91014872  0.61365002  1.0
  Ti  Ti4152  1  0.97272579  0.07681539  0.61365002  1.0
  Ti  Ti4153  1  0.97272579  0.24348206  0.61365002  1.0
  Ti  Ti4154  1  0.97272579  0.41014872  0.61365002  1.0
  Ti  Ti4155  1  0.97272579  0.57681539  0.61365002  1.0
  Ti  Ti4156  1  0.97272579  0.74348206  0.61365002  1.0
  Ti  Ti4157  1  0.97272579  0.91014872  0.61365002  1.0
  Ti  Ti4158  1  0.01818033  0.08872015  0.54222144  1.0
  Ti  Ti4159  1  0.01818033  0.25538682  0.54222144  1.0
  Ti  Ti4160  1  0.01818033  0.42205348  0.54222144  1.0
  Ti  Ti4161  1  0.01818033  0.58872015  0.54222144  1.0
  Ti  Ti4162  1  0.01818033  0.75538682  0.54222144  1.0
  Ti  Ti4163  1  0.01818033  0.92205348  0.54222144  1.0
  Ti  Ti4164  1  0.10908942  0.08872015  0.54222144  1.0
  Ti  Ti4165  1  0.10908942  0.25538682  0.54222144  1.0
  Ti  Ti4166  1  0.10908942  0.42205348  0.54222144  1.0
  Ti  Ti4167  1  0.10908942  0.58872015  0.54222144  1.0
  Ti  Ti4168  1  0.10908942  0.75538682  0.54222144  1.0
  Ti  Ti4169  1  0.10908942  0.92205348  0.54222144  1.0
  Ti  Ti4170  1  0.19999851  0.08872015  0.54222144  1.0
  Ti  Ti4171  1  0.19999851  0.25538682  0.54222144  1.0
  Ti  Ti4172  1  0.19999851  0.42205348  0.54222144  1.0
  Ti  Ti4173  1  0.19999851  0.58872015  0.54222144  1.0
  Ti  Ti4174  1  0.19999851  0.75538682  0.54222144  1.0
  Ti  Ti4175  1  0.19999851  0.92205348  0.54222144  1.0
  Ti  Ti4176  1  0.29090761  0.08872015  0.54222144  1.0
  Ti  Ti4177  1  0.29090761  0.25538682  0.54222144  1.0
  Ti  Ti4178  1  0.29090761  0.42205348  0.54222144  1.0
  Ti  Ti4179  1  0.29090761  0.58872015  0.54222144  1.0
  Ti  Ti4180  1  0.29090761  0.75538682  0.54222144  1.0
  Ti  Ti4181  1  0.29090761  0.92205348  0.54222144  1.0
  Ti  Ti4182  1  0.38181670  0.08872015  0.54222144  1.0
  Ti  Ti4183  1  0.38181670  0.25538682  0.54222144  1.0
  Ti  Ti4184  1  0.38181670  0.42205348  0.54222144  1.0
  Ti  Ti4185  1  0.38181670  0.58872015  0.54222144  1.0
  Ti  Ti4186  1  0.38181670  0.75538682  0.54222144  1.0
  Ti  Ti4187  1  0.38181670  0.92205348  0.54222144  1.0
  Ti  Ti4188  1  0.47272579  0.08872015  0.54222144  1.0
  Ti  Ti4189  1  0.47272579  0.25538682  0.54222144  1.0
  Ti  Ti4190  1  0.47272579  0.42205348  0.54222144  1.0
  Ti  Ti4191  1  0.47272579  0.58872015  0.54222144  1.0
  Ti  Ti4192  1  0.47272579  0.75538682  0.54222144  1.0
  Ti  Ti4193  1  0.47272579  0.92205348  0.54222144  1.0
  Ti  Ti4194  1  0.56363488  0.08872015  0.54222144  1.0
  Ti  Ti4195  1  0.56363488  0.25538682  0.54222144  1.0
  Ti  Ti4196  1  0.56363488  0.42205348  0.54222144  1.0
  Ti  Ti4197  1  0.56363488  0.58872015  0.54222144  1.0
  Ti  Ti4198  1  0.56363488  0.75538682  0.54222144  1.0
  Ti  Ti4199  1  0.56363488  0.92205348  0.54222144  1.0
  Ti  Ti4200  1  0.65454397  0.08872015  0.54222144  1.0
  Ti  Ti4201  1  0.65454397  0.25538682  0.54222144  1.0
  Ti  Ti4202  1  0.65454397  0.42205348  0.54222144  1.0
  Ti  Ti4203  1  0.65454397  0.58872015  0.54222144  1.0
  Ti  Ti4204  1  0.65454397  0.75538682  0.54222144  1.0
  Ti  Ti4205  1  0.65454397  0.92205348  0.54222144  1.0
  Ti  Ti4206  1  0.74545306  0.08872015  0.54222144  1.0
  Ti  Ti4207  1  0.74545306  0.25538682  0.54222144  1.0
  Ti  Ti4208  1  0.74545306  0.42205348  0.54222144  1.0
  Ti  Ti4209  1  0.74545306  0.58872015  0.54222144  1.0
  Ti  Ti4210  1  0.74545306  0.75538682  0.54222144  1.0
  Ti  Ti4211  1  0.74545306  0.92205348  0.54222144  1.0
  Ti  Ti4212  1  0.83636215  0.08872015  0.54222144  1.0
  Ti  Ti4213  1  0.83636215  0.25538682  0.54222144  1.0
  Ti  Ti4214  1  0.83636215  0.42205348  0.54222144  1.0
  Ti  Ti4215  1  0.83636215  0.58872015  0.54222144  1.0
  Ti  Ti4216  1  0.83636215  0.75538682  0.54222144  1.0
  Ti  Ti4217  1  0.83636215  0.92205348  0.54222144  1.0
  Ti  Ti4218  1  0.92727124  0.08872015  0.54222144  1.0
  Ti  Ti4219  1  0.92727124  0.25538682  0.54222144  1.0
  Ti  Ti4220  1  0.92727124  0.42205348  0.54222144  1.0
  Ti  Ti4221  1  0.92727124  0.58872015  0.54222144  1.0
  Ti  Ti4222  1  0.92727124  0.75538682  0.54222144  1.0
  Ti  Ti4223  1  0.92727124  0.92205348  0.54222144  1.0
  Ti  Ti4224  1  0.05329848  0.15236149  0.59534574  1.0
  Ti  Ti4225  1  0.05329848  0.31902815  0.59534574  1.0
  Ti  Ti4226  1  0.05329848  0.48569482  0.59534574  1.0
  Ti  Ti4227  1  0.05329848  0.65236149  0.59534574  1.0
  Ti  Ti4228  1  0.05329848  0.81902815  0.59534574  1.0
  Ti  Ti4229  1  0.05329848  0.98569482  0.59534574  1.0
  Ti  Ti4230  1  0.14420758  0.15236149  0.59534574  1.0
  Ti  Ti4231  1  0.14420758  0.31902815  0.59534574  1.0
  Ti  Ti4232  1  0.14420758  0.48569482  0.59534574  1.0
  Ti  Ti4233  1  0.14420758  0.65236149  0.59534574  1.0
  Ti  Ti4234  1  0.14420758  0.81902815  0.59534574  1.0
  Ti  Ti4235  1  0.14420758  0.98569482  0.59534574  1.0
  Ti  Ti4236  1  0.23511667  0.15236149  0.59534574  1.0
  Ti  Ti4237  1  0.23511667  0.31902815  0.59534574  1.0
  Ti  Ti4238  1  0.23511667  0.48569482  0.59534574  1.0
  Ti  Ti4239  1  0.23511667  0.65236149  0.59534574  1.0
  Ti  Ti4240  1  0.23511667  0.81902815  0.59534574  1.0
  Ti  Ti4241  1  0.23511667  0.98569482  0.59534574  1.0
  Ti  Ti4242  1  0.32602576  0.15236149  0.59534574  1.0
  Ti  Ti4243  1  0.32602576  0.31902815  0.59534574  1.0
  Ti  Ti4244  1  0.32602576  0.48569482  0.59534574  1.0
  Ti  Ti4245  1  0.32602576  0.65236149  0.59534574  1.0
  Ti  Ti4246  1  0.32602576  0.81902815  0.59534574  1.0
  Ti  Ti4247  1  0.32602576  0.98569482  0.59534574  1.0
  Ti  Ti4248  1  0.41693485  0.15236149  0.59534574  1.0
  Ti  Ti4249  1  0.41693485  0.31902815  0.59534574  1.0
  Ti  Ti4250  1  0.41693485  0.48569482  0.59534574  1.0
  Ti  Ti4251  1  0.41693485  0.65236149  0.59534574  1.0
  Ti  Ti4252  1  0.41693485  0.81902815  0.59534574  1.0
  Ti  Ti4253  1  0.41693485  0.98569482  0.59534574  1.0
  Ti  Ti4254  1  0.50784394  0.15236149  0.59534574  1.0
  Ti  Ti4255  1  0.50784394  0.31902815  0.59534574  1.0
  Ti  Ti4256  1  0.50784394  0.48569482  0.59534574  1.0
  Ti  Ti4257  1  0.50784394  0.65236149  0.59534574  1.0
  Ti  Ti4258  1  0.50784394  0.81902815  0.59534574  1.0
  Ti  Ti4259  1  0.50784394  0.98569482  0.59534574  1.0
  Ti  Ti4260  1  0.59875303  0.15236149  0.59534574  1.0
  Ti  Ti4261  1  0.59875303  0.31902815  0.59534574  1.0
  Ti  Ti4262  1  0.59875303  0.48569482  0.59534574  1.0
  Ti  Ti4263  1  0.59875303  0.65236149  0.59534574  1.0
  Ti  Ti4264  1  0.59875303  0.81902815  0.59534574  1.0
  Ti  Ti4265  1  0.59875303  0.98569482  0.59534574  1.0
  Ti  Ti4266  1  0.68966212  0.15236149  0.59534574  1.0
  Ti  Ti4267  1  0.68966212  0.31902815  0.59534574  1.0
  Ti  Ti4268  1  0.68966212  0.48569482  0.59534574  1.0
  Ti  Ti4269  1  0.68966212  0.65236149  0.59534574  1.0
  Ti  Ti4270  1  0.68966212  0.81902815  0.59534574  1.0
  Ti  Ti4271  1  0.68966212  0.98569482  0.59534574  1.0
  Ti  Ti4272  1  0.78057121  0.15236149  0.59534574  1.0
  Ti  Ti4273  1  0.78057121  0.31902815  0.59534574  1.0
  Ti  Ti4274  1  0.78057121  0.48569482  0.59534574  1.0
  Ti  Ti4275  1  0.78057121  0.65236149  0.59534574  1.0
  Ti  Ti4276  1  0.78057121  0.81902815  0.59534574  1.0
  Ti  Ti4277  1  0.78057121  0.98569482  0.59534574  1.0
  Ti  Ti4278  1  0.87148030  0.15236149  0.59534574  1.0
  Ti  Ti4279  1  0.87148030  0.31902815  0.59534574  1.0
  Ti  Ti4280  1  0.87148030  0.48569482  0.59534574  1.0
  Ti  Ti4281  1  0.87148030  0.65236149  0.59534574  1.0
  Ti  Ti4282  1  0.87148030  0.81902815  0.59534574  1.0
  Ti  Ti4283  1  0.87148030  0.98569482  0.59534574  1.0
  Ti  Ti4284  1  0.96238939  0.15236149  0.59534574  1.0
  Ti  Ti4285  1  0.96238939  0.31902815  0.59534574  1.0
  Ti  Ti4286  1  0.96238939  0.48569482  0.59534574  1.0
  Ti  Ti4287  1  0.96238939  0.65236149  0.59534574  1.0
  Ti  Ti4288  1  0.96238939  0.81902815  0.59534574  1.0
  Ti  Ti4289  1  0.96238939  0.98569482  0.59534574  1.0
  Ti  Ti4290  1  0.00784394  0.16426625  0.52391717  1.0
  Ti  Ti4291  1  0.00784394  0.33093291  0.52391717  1.0
  Ti  Ti4292  1  0.00784394  0.49759958  0.52391717  1.0
  Ti  Ti4293  1  0.00784394  0.66426625  0.52391717  1.0
  Ti  Ti4294  1  0.00784394  0.83093291  0.52391717  1.0
  Ti  Ti4295  1  0.00784394  0.99759958  0.52391717  1.0
  Ti  Ti4296  1  0.09875303  0.16426625  0.52391717  1.0
  Ti  Ti4297  1  0.09875303  0.33093291  0.52391717  1.0
  Ti  Ti4298  1  0.09875303  0.49759958  0.52391717  1.0
  Ti  Ti4299  1  0.09875303  0.66426625  0.52391717  1.0
  Ti  Ti4300  1  0.09875303  0.83093291  0.52391717  1.0
  Ti  Ti4301  1  0.09875303  0.99759958  0.52391717  1.0
  Ti  Ti4302  1  0.18966212  0.16426625  0.52391717  1.0
  Ti  Ti4303  1  0.18966212  0.33093291  0.52391717  1.0
  Ti  Ti4304  1  0.18966212  0.49759958  0.52391717  1.0
  Ti  Ti4305  1  0.18966212  0.66426625  0.52391717  1.0
  Ti  Ti4306  1  0.18966212  0.83093291  0.52391717  1.0
  Ti  Ti4307  1  0.18966212  0.99759958  0.52391717  1.0
  Ti  Ti4308  1  0.28057121  0.16426625  0.52391717  1.0
  Ti  Ti4309  1  0.28057121  0.33093291  0.52391717  1.0
  Ti  Ti4310  1  0.28057121  0.49759958  0.52391717  1.0
  Ti  Ti4311  1  0.28057121  0.66426625  0.52391717  1.0
  Ti  Ti4312  1  0.28057121  0.83093291  0.52391717  1.0
  Ti  Ti4313  1  0.28057121  0.99759958  0.52391717  1.0
  Ti  Ti4314  1  0.37148030  0.16426625  0.52391717  1.0
  Ti  Ti4315  1  0.37148030  0.33093291  0.52391717  1.0
  Ti  Ti4316  1  0.37148030  0.49759958  0.52391717  1.0
  Ti  Ti4317  1  0.37148030  0.66426625  0.52391717  1.0
  Ti  Ti4318  1  0.37148030  0.83093291  0.52391717  1.0
  Ti  Ti4319  1  0.37148030  0.99759958  0.52391717  1.0
  Ti  Ti4320  1  0.46238939  0.16426625  0.52391717  1.0
  Ti  Ti4321  1  0.46238939  0.33093291  0.52391717  1.0
  Ti  Ti4322  1  0.46238939  0.49759958  0.52391717  1.0
  Ti  Ti4323  1  0.46238939  0.66426625  0.52391717  1.0
  Ti  Ti4324  1  0.46238939  0.83093291  0.52391717  1.0
  Ti  Ti4325  1  0.46238939  0.99759958  0.52391717  1.0
  Ti  Ti4326  1  0.55329848  0.16426625  0.52391717  1.0
  Ti  Ti4327  1  0.55329848  0.33093291  0.52391717  1.0
  Ti  Ti4328  1  0.55329848  0.49759958  0.52391717  1.0
  Ti  Ti4329  1  0.55329848  0.66426625  0.52391717  1.0
  Ti  Ti4330  1  0.55329848  0.83093291  0.52391717  1.0
  Ti  Ti4331  1  0.55329848  0.99759958  0.52391717  1.0
  Ti  Ti4332  1  0.64420758  0.16426625  0.52391717  1.0
  Ti  Ti4333  1  0.64420758  0.33093291  0.52391717  1.0
  Ti  Ti4334  1  0.64420758  0.49759958  0.52391717  1.0
  Ti  Ti4335  1  0.64420758  0.66426625  0.52391717  1.0
  Ti  Ti4336  1  0.64420758  0.83093291  0.52391717  1.0
  Ti  Ti4337  1  0.64420758  0.99759958  0.52391717  1.0
  Ti  Ti4338  1  0.73511667  0.16426625  0.52391717  1.0
  Ti  Ti4339  1  0.73511667  0.33093291  0.52391717  1.0
  Ti  Ti4340  1  0.73511667  0.49759958  0.52391717  1.0
  Ti  Ti4341  1  0.73511667  0.66426625  0.52391717  1.0
  Ti  Ti4342  1  0.73511667  0.83093291  0.52391717  1.0
  Ti  Ti4343  1  0.73511667  0.99759958  0.52391717  1.0
  Ti  Ti4344  1  0.82602576  0.16426625  0.52391717  1.0
  Ti  Ti4345  1  0.82602576  0.33093291  0.52391717  1.0
  Ti  Ti4346  1  0.82602576  0.49759958  0.52391717  1.0
  Ti  Ti4347  1  0.82602576  0.66426625  0.52391717  1.0
  Ti  Ti4348  1  0.82602576  0.83093291  0.52391717  1.0
  Ti  Ti4349  1  0.82602576  0.99759958  0.52391717  1.0
  Ti  Ti4350  1  0.91693485  0.16426625  0.52391717  1.0
  Ti  Ti4351  1  0.91693485  0.33093291  0.52391717  1.0
  Ti  Ti4352  1  0.91693485  0.49759958  0.52391717  1.0
  Ti  Ti4353  1  0.91693485  0.66426625  0.52391717  1.0
  Ti  Ti4354  1  0.91693485  0.83093291  0.52391717  1.0
  Ti  Ti4355  1  0.91693485  0.99759958  0.52391717  1.0
  Ti  Ti4356  1  0.05092418  0.13841972  0.66502256  1.0
  Ti  Ti4357  1  0.05092418  0.30508639  0.66502256  1.0
  Ti  Ti4358  1  0.05092418  0.47175306  0.66502256  1.0
  Ti  Ti4359  1  0.05092418  0.63841972  0.66502256  1.0
  Ti  Ti4360  1  0.05092418  0.80508639  0.66502256  1.0
  Ti  Ti4361  1  0.05092418  0.97175306  0.66502256  1.0
  Ti  Ti4362  1  0.14183328  0.13841972  0.66502256  1.0
  Ti  Ti4363  1  0.14183328  0.30508639  0.66502256  1.0
  Ti  Ti4364  1  0.14183328  0.47175306  0.66502256  1.0
  Ti  Ti4365  1  0.14183328  0.63841972  0.66502256  1.0
  Ti  Ti4366  1  0.14183328  0.80508639  0.66502256  1.0
  Ti  Ti4367  1  0.14183328  0.97175306  0.66502256  1.0
  Ti  Ti4368  1  0.23274237  0.13841972  0.66502256  1.0
  Ti  Ti4369  1  0.23274237  0.30508639  0.66502256  1.0
  Ti  Ti4370  1  0.23274237  0.47175306  0.66502256  1.0
  Ti  Ti4371  1  0.23274237  0.63841972  0.66502256  1.0
  Ti  Ti4372  1  0.23274237  0.80508639  0.66502256  1.0
  Ti  Ti4373  1  0.23274237  0.97175306  0.66502256  1.0
  Ti  Ti4374  1  0.32365146  0.13841972  0.66502256  1.0
  Ti  Ti4375  1  0.32365146  0.30508639  0.66502256  1.0
  Ti  Ti4376  1  0.32365146  0.47175306  0.66502256  1.0
  Ti  Ti4377  1  0.32365146  0.63841972  0.66502256  1.0
  Ti  Ti4378  1  0.32365146  0.80508639  0.66502256  1.0
  Ti  Ti4379  1  0.32365146  0.97175306  0.66502256  1.0
  Ti  Ti4380  1  0.41456055  0.13841972  0.66502256  1.0
  Ti  Ti4381  1  0.41456055  0.30508639  0.66502256  1.0
  Ti  Ti4382  1  0.41456055  0.47175306  0.66502256  1.0
  Ti  Ti4383  1  0.41456055  0.63841972  0.66502256  1.0
  Ti  Ti4384  1  0.41456055  0.80508639  0.66502256  1.0
  Ti  Ti4385  1  0.41456055  0.97175306  0.66502256  1.0
  Ti  Ti4386  1  0.50546964  0.13841972  0.66502256  1.0
  Ti  Ti4387  1  0.50546964  0.30508639  0.66502256  1.0
  Ti  Ti4388  1  0.50546964  0.47175306  0.66502256  1.0
  Ti  Ti4389  1  0.50546964  0.63841972  0.66502256  1.0
  Ti  Ti4390  1  0.50546964  0.80508639  0.66502256  1.0
  Ti  Ti4391  1  0.50546964  0.97175306  0.66502256  1.0
  Ti  Ti4392  1  0.59637873  0.13841972  0.66502256  1.0
  Ti  Ti4393  1  0.59637873  0.30508639  0.66502256  1.0
  Ti  Ti4394  1  0.59637873  0.47175306  0.66502256  1.0
  Ti  Ti4395  1  0.59637873  0.63841972  0.66502256  1.0
  Ti  Ti4396  1  0.59637873  0.80508639  0.66502256  1.0
  Ti  Ti4397  1  0.59637873  0.97175306  0.66502256  1.0
  Ti  Ti4398  1  0.68728782  0.13841972  0.66502256  1.0
  Ti  Ti4399  1  0.68728782  0.30508639  0.66502256  1.0
  Ti  Ti4400  1  0.68728782  0.47175306  0.66502256  1.0
  Ti  Ti4401  1  0.68728782  0.63841972  0.66502256  1.0
  Ti  Ti4402  1  0.68728782  0.80508639  0.66502256  1.0
  Ti  Ti4403  1  0.68728782  0.97175306  0.66502256  1.0
  Ti  Ti4404  1  0.77819691  0.13841972  0.66502256  1.0
  Ti  Ti4405  1  0.77819691  0.30508639  0.66502256  1.0
  Ti  Ti4406  1  0.77819691  0.47175306  0.66502256  1.0
  Ti  Ti4407  1  0.77819691  0.63841972  0.66502256  1.0
  Ti  Ti4408  1  0.77819691  0.80508639  0.66502256  1.0
  Ti  Ti4409  1  0.77819691  0.97175306  0.66502256  1.0
  Ti  Ti4410  1  0.86910600  0.13841972  0.66502256  1.0
  Ti  Ti4411  1  0.86910600  0.30508639  0.66502256  1.0
  Ti  Ti4412  1  0.86910600  0.47175306  0.66502256  1.0
  Ti  Ti4413  1  0.86910600  0.63841972  0.66502256  1.0
  Ti  Ti4414  1  0.86910600  0.80508639  0.66502256  1.0
  Ti  Ti4415  1  0.86910600  0.97175306  0.66502256  1.0
  Ti  Ti4416  1  0.96001509  0.13841972  0.66502256  1.0
  Ti  Ti4417  1  0.96001509  0.30508639  0.66502256  1.0
  Ti  Ti4418  1  0.96001509  0.47175306  0.66502256  1.0
  Ti  Ti4419  1  0.96001509  0.63841972  0.66502256  1.0
  Ti  Ti4420  1  0.96001509  0.80508639  0.66502256  1.0
  Ti  Ti4421  1  0.96001509  0.97175306  0.66502256  1.0
  Ti  Ti4422  1  0.06568852  0.06474820  0.68491158  1.0
  Ti  Ti4423  1  0.06568852  0.23141487  0.68491158  1.0
  Ti  Ti4424  1  0.06568852  0.39808154  0.68491158  1.0
  Ti  Ti4425  1  0.06568852  0.56474820  0.68491158  1.0
  Ti  Ti4426  1  0.06568852  0.73141487  0.68491158  1.0
  Ti  Ti4427  1  0.06568852  0.89808154  0.68491158  1.0
  Ti  Ti4428  1  0.15659761  0.06474820  0.68491158  1.0
  Ti  Ti4429  1  0.15659761  0.23141487  0.68491158  1.0
  Ti  Ti4430  1  0.15659761  0.39808154  0.68491158  1.0
  Ti  Ti4431  1  0.15659761  0.56474820  0.68491158  1.0
  Ti  Ti4432  1  0.15659761  0.73141487  0.68491158  1.0
  Ti  Ti4433  1  0.15659761  0.89808154  0.68491158  1.0
  Ti  Ti4434  1  0.24750670  0.06474820  0.68491158  1.0
  Ti  Ti4435  1  0.24750670  0.23141487  0.68491158  1.0
  Ti  Ti4436  1  0.24750670  0.39808154  0.68491158  1.0
  Ti  Ti4437  1  0.24750670  0.56474820  0.68491158  1.0
  Ti  Ti4438  1  0.24750670  0.73141487  0.68491158  1.0
  Ti  Ti4439  1  0.24750670  0.89808154  0.68491158  1.0
  Ti  Ti4440  1  0.33841579  0.06474820  0.68491158  1.0
  Ti  Ti4441  1  0.33841579  0.23141487  0.68491158  1.0
  Ti  Ti4442  1  0.33841579  0.39808154  0.68491158  1.0
  Ti  Ti4443  1  0.33841579  0.56474820  0.68491158  1.0
  Ti  Ti4444  1  0.33841579  0.73141487  0.68491158  1.0
  Ti  Ti4445  1  0.33841579  0.89808154  0.68491158  1.0
  Ti  Ti4446  1  0.42932488  0.06474820  0.68491158  1.0
  Ti  Ti4447  1  0.42932488  0.23141487  0.68491158  1.0
  Ti  Ti4448  1  0.42932488  0.39808154  0.68491158  1.0
  Ti  Ti4449  1  0.42932488  0.56474820  0.68491158  1.0
  Ti  Ti4450  1  0.42932488  0.73141487  0.68491158  1.0
  Ti  Ti4451  1  0.42932488  0.89808154  0.68491158  1.0
  Ti  Ti4452  1  0.52023397  0.06474820  0.68491158  1.0
  Ti  Ti4453  1  0.52023397  0.23141487  0.68491158  1.0
  Ti  Ti4454  1  0.52023397  0.39808154  0.68491158  1.0
  Ti  Ti4455  1  0.52023397  0.56474820  0.68491158  1.0
  Ti  Ti4456  1  0.52023397  0.73141487  0.68491158  1.0
  Ti  Ti4457  1  0.52023397  0.89808154  0.68491158  1.0
  Ti  Ti4458  1  0.61114306  0.06474820  0.68491158  1.0
  Ti  Ti4459  1  0.61114306  0.23141487  0.68491158  1.0
  Ti  Ti4460  1  0.61114306  0.39808154  0.68491158  1.0
  Ti  Ti4461  1  0.61114306  0.56474820  0.68491158  1.0
  Ti  Ti4462  1  0.61114306  0.73141487  0.68491158  1.0
  Ti  Ti4463  1  0.61114306  0.89808154  0.68491158  1.0
  Ti  Ti4464  1  0.70205216  0.06474820  0.68491158  1.0
  Ti  Ti4465  1  0.70205216  0.23141487  0.68491158  1.0
  Ti  Ti4466  1  0.70205216  0.39808154  0.68491158  1.0
  Ti  Ti4467  1  0.70205216  0.56474820  0.68491158  1.0
  Ti  Ti4468  1  0.70205216  0.73141487  0.68491158  1.0
  Ti  Ti4469  1  0.70205216  0.89808154  0.68491158  1.0
  Ti  Ti4470  1  0.79296125  0.06474820  0.68491158  1.0
  Ti  Ti4471  1  0.79296125  0.23141487  0.68491158  1.0
  Ti  Ti4472  1  0.79296125  0.39808154  0.68491158  1.0
  Ti  Ti4473  1  0.79296125  0.56474820  0.68491158  1.0
  Ti  Ti4474  1  0.79296125  0.73141487  0.68491158  1.0
  Ti  Ti4475  1  0.79296125  0.89808154  0.68491158  1.0
  Ti  Ti4476  1  0.88387034  0.06474820  0.68491158  1.0
  Ti  Ti4477  1  0.88387034  0.23141487  0.68491158  1.0
  Ti  Ti4478  1  0.88387034  0.39808154  0.68491158  1.0
  Ti  Ti4479  1  0.88387034  0.56474820  0.68491158  1.0
  Ti  Ti4480  1  0.88387034  0.73141487  0.68491158  1.0
  Ti  Ti4481  1  0.88387034  0.89808154  0.68491158  1.0
  Ti  Ti4482  1  0.97477943  0.06474820  0.68491158  1.0
  Ti  Ti4483  1  0.97477943  0.23141487  0.68491158  1.0
  Ti  Ti4484  1  0.97477943  0.39808154  0.68491158  1.0
  Ti  Ti4485  1  0.97477943  0.56474820  0.68491158  1.0
  Ti  Ti4486  1  0.97477943  0.73141487  0.68491158  1.0
  Ti  Ti4487  1  0.97477943  0.89808154  0.68491158  1.0
  Ti  Ti4488  1  0.05762150  0.01789518  0.67679189  1.0
  Ti  Ti4489  1  0.05762150  0.18456185  0.67679189  1.0
  Ti  Ti4490  1  0.05762150  0.35122852  0.67679189  1.0
  Ti  Ti4491  1  0.05762150  0.51789518  0.67679189  1.0
  Ti  Ti4492  1  0.05762150  0.68456185  0.67679189  1.0
  Ti  Ti4493  1  0.05762150  0.85122852  0.67679189  1.0
  Ti  Ti4494  1  0.14853059  0.01789518  0.67679189  1.0
  Ti  Ti4495  1  0.14853059  0.18456185  0.67679189  1.0
  Ti  Ti4496  1  0.14853059  0.35122852  0.67679189  1.0
  Ti  Ti4497  1  0.14853059  0.51789518  0.67679189  1.0
  Ti  Ti4498  1  0.14853059  0.68456185  0.67679189  1.0
  Ti  Ti4499  1  0.14853059  0.85122852  0.67679189  1.0
  Ti  Ti4500  1  0.23943968  0.01789518  0.67679189  1.0
  Ti  Ti4501  1  0.23943968  0.18456185  0.67679189  1.0
  Ti  Ti4502  1  0.23943968  0.35122852  0.67679189  1.0
  Ti  Ti4503  1  0.23943968  0.51789518  0.67679189  1.0
  Ti  Ti4504  1  0.23943968  0.68456185  0.67679189  1.0
  Ti  Ti4505  1  0.23943968  0.85122852  0.67679189  1.0
  Ti  Ti4506  1  0.33034877  0.01789518  0.67679189  1.0
  Ti  Ti4507  1  0.33034877  0.18456185  0.67679189  1.0
  Ti  Ti4508  1  0.33034877  0.35122852  0.67679189  1.0
  Ti  Ti4509  1  0.33034877  0.51789518  0.67679189  1.0
  Ti  Ti4510  1  0.33034877  0.68456185  0.67679189  1.0
  Ti  Ti4511  1  0.33034877  0.85122852  0.67679189  1.0
  Ti  Ti4512  1  0.42125786  0.01789518  0.67679189  1.0
  Ti  Ti4513  1  0.42125786  0.18456185  0.67679189  1.0
  Ti  Ti4514  1  0.42125786  0.35122852  0.67679189  1.0
  Ti  Ti4515  1  0.42125786  0.51789518  0.67679189  1.0
  Ti  Ti4516  1  0.42125786  0.68456185  0.67679189  1.0
  Ti  Ti4517  1  0.42125786  0.85122852  0.67679189  1.0
  Ti  Ti4518  1  0.51216695  0.01789518  0.67679189  1.0
  Ti  Ti4519  1  0.51216695  0.18456185  0.67679189  1.0
  Ti  Ti4520  1  0.51216695  0.35122852  0.67679189  1.0
  Ti  Ti4521  1  0.51216695  0.51789518  0.67679189  1.0
  Ti  Ti4522  1  0.51216695  0.68456185  0.67679189  1.0
  Ti  Ti4523  1  0.51216695  0.85122852  0.67679189  1.0
  Ti  Ti4524  1  0.60307604  0.01789518  0.67679189  1.0
  Ti  Ti4525  1  0.60307604  0.18456185  0.67679189  1.0
  Ti  Ti4526  1  0.60307604  0.35122852  0.67679189  1.0
  Ti  Ti4527  1  0.60307604  0.51789518  0.67679189  1.0
  Ti  Ti4528  1  0.60307604  0.68456185  0.67679189  1.0
  Ti  Ti4529  1  0.60307604  0.85122852  0.67679189  1.0
  Ti  Ti4530  1  0.69398513  0.01789518  0.67679189  1.0
  Ti  Ti4531  1  0.69398513  0.18456185  0.67679189  1.0
  Ti  Ti4532  1  0.69398513  0.35122852  0.67679189  1.0
  Ti  Ti4533  1  0.69398513  0.51789518  0.67679189  1.0
  Ti  Ti4534  1  0.69398513  0.68456185  0.67679189  1.0
  Ti  Ti4535  1  0.69398513  0.85122852  0.67679189  1.0
  Ti  Ti4536  1  0.78489423  0.01789518  0.67679189  1.0
  Ti  Ti4537  1  0.78489423  0.18456185  0.67679189  1.0
  Ti  Ti4538  1  0.78489423  0.35122852  0.67679189  1.0
  Ti  Ti4539  1  0.78489423  0.51789518  0.67679189  1.0
  Ti  Ti4540  1  0.78489423  0.68456185  0.67679189  1.0
  Ti  Ti4541  1  0.78489423  0.85122852  0.67679189  1.0
  Ti  Ti4542  1  0.87580332  0.01789518  0.67679189  1.0
  Ti  Ti4543  1  0.87580332  0.18456185  0.67679189  1.0
  Ti  Ti4544  1  0.87580332  0.35122852  0.67679189  1.0
  Ti  Ti4545  1  0.87580332  0.51789518  0.67679189  1.0
  Ti  Ti4546  1  0.87580332  0.68456185  0.67679189  1.0
  Ti  Ti4547  1  0.87580332  0.85122852  0.67679189  1.0
  Ti  Ti4548  1  0.96671241  0.01789518  0.67679189  1.0
  Ti  Ti4549  1  0.96671241  0.18456185  0.67679189  1.0
  Ti  Ti4550  1  0.96671241  0.35122852  0.67679189  1.0
  Ti  Ti4551  1  0.96671241  0.51789518  0.67679189  1.0
  Ti  Ti4552  1  0.96671241  0.68456185  0.67679189  1.0
  Ti  Ti4553  1  0.96671241  0.85122852  0.67679189  1.0
  Ti  Ti4554  1  0.09063220  0.09017401  0.65691233  1.0
  Ti  Ti4555  1  0.09063220  0.25684068  0.65691233  1.0
  Ti  Ti4556  1  0.09063220  0.42350735  0.65691233  1.0
  Ti  Ti4557  1  0.09063220  0.59017401  0.65691233  1.0
  Ti  Ti4558  1  0.09063220  0.75684068  0.65691233  1.0
  Ti  Ti4559  1  0.09063220  0.92350735  0.65691233  1.0
  Ti  Ti4560  1  0.18154129  0.09017401  0.65691233  1.0
  Ti  Ti4561  1  0.18154129  0.25684068  0.65691233  1.0
  Ti  Ti4562  1  0.18154129  0.42350735  0.65691233  1.0
  Ti  Ti4563  1  0.18154129  0.59017401  0.65691233  1.0
  Ti  Ti4564  1  0.18154129  0.75684068  0.65691233  1.0
  Ti  Ti4565  1  0.18154129  0.92350735  0.65691233  1.0
  Ti  Ti4566  1  0.27245038  0.09017401  0.65691233  1.0
  Ti  Ti4567  1  0.27245038  0.25684068  0.65691233  1.0
  Ti  Ti4568  1  0.27245038  0.42350735  0.65691233  1.0
  Ti  Ti4569  1  0.27245038  0.59017401  0.65691233  1.0
  Ti  Ti4570  1  0.27245038  0.75684068  0.65691233  1.0
  Ti  Ti4571  1  0.27245038  0.92350735  0.65691233  1.0
  Ti  Ti4572  1  0.36335947  0.09017401  0.65691233  1.0
  Ti  Ti4573  1  0.36335947  0.25684068  0.65691233  1.0
  Ti  Ti4574  1  0.36335947  0.42350735  0.65691233  1.0
  Ti  Ti4575  1  0.36335947  0.59017401  0.65691233  1.0
  Ti  Ti4576  1  0.36335947  0.75684068  0.65691233  1.0
  Ti  Ti4577  1  0.36335947  0.92350735  0.65691233  1.0
  Ti  Ti4578  1  0.45426856  0.09017401  0.65691233  1.0
  Ti  Ti4579  1  0.45426856  0.25684068  0.65691233  1.0
  Ti  Ti4580  1  0.45426856  0.42350735  0.65691233  1.0
  Ti  Ti4581  1  0.45426856  0.59017401  0.65691233  1.0
  Ti  Ti4582  1  0.45426856  0.75684068  0.65691233  1.0
  Ti  Ti4583  1  0.45426856  0.92350735  0.65691233  1.0
  Ti  Ti4584  1  0.54517765  0.09017401  0.65691233  1.0
  Ti  Ti4585  1  0.54517765  0.25684068  0.65691233  1.0
  Ti  Ti4586  1  0.54517765  0.42350735  0.65691233  1.0
  Ti  Ti4587  1  0.54517765  0.59017401  0.65691233  1.0
  Ti  Ti4588  1  0.54517765  0.75684068  0.65691233  1.0
  Ti  Ti4589  1  0.54517765  0.92350735  0.65691233  1.0
  Ti  Ti4590  1  0.63608674  0.09017401  0.65691233  1.0
  Ti  Ti4591  1  0.63608674  0.25684068  0.65691233  1.0
  Ti  Ti4592  1  0.63608674  0.42350735  0.65691233  1.0
  Ti  Ti4593  1  0.63608674  0.59017401  0.65691233  1.0
  Ti  Ti4594  1  0.63608674  0.75684068  0.65691233  1.0
  Ti  Ti4595  1  0.63608674  0.92350735  0.65691233  1.0
  Ti  Ti4596  1  0.72699584  0.09017401  0.65691233  1.0
  Ti  Ti4597  1  0.72699583  0.25684068  0.65691233  1.0
  Ti  Ti4598  1  0.72699583  0.42350735  0.65691233  1.0
  Ti  Ti4599  1  0.72699584  0.59017401  0.65691233  1.0
  Ti  Ti4600  1  0.72699584  0.75684068  0.65691233  1.0
  Ti  Ti4601  1  0.72699584  0.92350735  0.65691233  1.0
  Ti  Ti4602  1  0.81790493  0.09017401  0.65691233  1.0
  Ti  Ti4603  1  0.81790493  0.25684068  0.65691233  1.0
  Ti  Ti4604  1  0.81790493  0.42350735  0.65691233  1.0
  Ti  Ti4605  1  0.81790493  0.59017401  0.65691233  1.0
  Ti  Ti4606  1  0.81790493  0.75684068  0.65691233  1.0
  Ti  Ti4607  1  0.81790493  0.92350735  0.65691233  1.0
  Ti  Ti4608  1  0.90881402  0.09017401  0.65691233  1.0
  Ti  Ti4609  1  0.90881402  0.25684068  0.65691233  1.0
  Ti  Ti4610  1  0.90881402  0.42350735  0.65691233  1.0
  Ti  Ti4611  1  0.90881402  0.59017401  0.65691233  1.0
  Ti  Ti4612  1  0.90881402  0.75684068  0.65691233  1.0
  Ti  Ti4613  1  0.90881402  0.92350735  0.65691233  1.0
  Ti  Ti4614  1  0.99972311  0.09017401  0.65691233  1.0
  Ti  Ti4615  1  0.99972311  0.25684068  0.65691233  1.0
  Ti  Ti4616  1  0.99972311  0.42350735  0.65691233  1.0
  Ti  Ti4617  1  0.99972311  0.59017401  0.65691233  1.0
  Ti  Ti4618  1  0.99972311  0.75684068  0.65691233  1.0
  Ti  Ti4619  1  0.99972311  0.92350735  0.65691233  1.0
  Ti  Ti4620  1  0.02460185  0.10888370  0.69493061  1.0
  Ti  Ti4621  1  0.02460185  0.27555037  0.69493061  1.0
  Ti  Ti4622  1  0.02460185  0.44221703  0.69493061  1.0
  Ti  Ti4623  1  0.02460185  0.60888370  0.69493061  1.0
  Ti  Ti4624  1  0.02460185  0.77555037  0.69493061  1.0
  Ti  Ti4625  1  0.02460185  0.94221703  0.69493061  1.0
  Ti  Ti4626  1  0.11551094  0.10888370  0.69493061  1.0
  Ti  Ti4627  1  0.11551094  0.27555037  0.69493061  1.0
  Ti  Ti4628  1  0.11551094  0.44221703  0.69493061  1.0
  Ti  Ti4629  1  0.11551094  0.60888370  0.69493061  1.0
  Ti  Ti4630  1  0.11551094  0.77555037  0.69493061  1.0
  Ti  Ti4631  1  0.11551094  0.94221703  0.69493061  1.0
  Ti  Ti4632  1  0.20642003  0.10888370  0.69493061  1.0
  Ti  Ti4633  1  0.20642003  0.27555037  0.69493061  1.0
  Ti  Ti4634  1  0.20642003  0.44221703  0.69493061  1.0
  Ti  Ti4635  1  0.20642003  0.60888370  0.69493061  1.0
  Ti  Ti4636  1  0.20642003  0.77555037  0.69493061  1.0
  Ti  Ti4637  1  0.20642003  0.94221703  0.69493061  1.0
  Ti  Ti4638  1  0.29732912  0.10888370  0.69493061  1.0
  Ti  Ti4639  1  0.29732912  0.27555037  0.69493061  1.0
  Ti  Ti4640  1  0.29732912  0.44221703  0.69493061  1.0
  Ti  Ti4641  1  0.29732912  0.60888370  0.69493061  1.0
  Ti  Ti4642  1  0.29732912  0.77555037  0.69493061  1.0
  Ti  Ti4643  1  0.29732912  0.94221703  0.69493061  1.0
  Ti  Ti4644  1  0.38823821  0.10888370  0.69493061  1.0
  Ti  Ti4645  1  0.38823821  0.27555037  0.69493061  1.0
  Ti  Ti4646  1  0.38823821  0.44221703  0.69493061  1.0
  Ti  Ti4647  1  0.38823821  0.60888370  0.69493061  1.0
  Ti  Ti4648  1  0.38823821  0.77555037  0.69493061  1.0
  Ti  Ti4649  1  0.38823821  0.94221703  0.69493061  1.0
  Ti  Ti4650  1  0.47914730  0.10888370  0.69493061  1.0
  Ti  Ti4651  1  0.47914730  0.27555037  0.69493061  1.0
  Ti  Ti4652  1  0.47914730  0.44221703  0.69493061  1.0
  Ti  Ti4653  1  0.47914730  0.60888370  0.69493061  1.0
  Ti  Ti4654  1  0.47914730  0.77555037  0.69493061  1.0
  Ti  Ti4655  1  0.47914730  0.94221703  0.69493061  1.0
  Ti  Ti4656  1  0.57005639  0.10888370  0.69493061  1.0
  Ti  Ti4657  1  0.57005639  0.27555037  0.69493061  1.0
  Ti  Ti4658  1  0.57005639  0.44221703  0.69493061  1.0
  Ti  Ti4659  1  0.57005639  0.60888370  0.69493061  1.0
  Ti  Ti4660  1  0.57005639  0.77555037  0.69493061  1.0
  Ti  Ti4661  1  0.57005639  0.94221703  0.69493061  1.0
  Ti  Ti4662  1  0.66096549  0.10888370  0.69493061  1.0
  Ti  Ti4663  1  0.66096549  0.27555037  0.69493061  1.0
  Ti  Ti4664  1  0.66096549  0.44221703  0.69493061  1.0
  Ti  Ti4665  1  0.66096549  0.60888370  0.69493061  1.0
  Ti  Ti4666  1  0.66096549  0.77555037  0.69493061  1.0
  Ti  Ti4667  1  0.66096549  0.94221703  0.69493061  1.0
  Ti  Ti4668  1  0.75187458  0.10888370  0.69493061  1.0
  Ti  Ti4669  1  0.75187458  0.27555037  0.69493061  1.0
  Ti  Ti4670  1  0.75187458  0.44221703  0.69493061  1.0
  Ti  Ti4671  1  0.75187458  0.60888370  0.69493061  1.0
  Ti  Ti4672  1  0.75187458  0.77555037  0.69493061  1.0
  Ti  Ti4673  1  0.75187458  0.94221703  0.69493061  1.0
  Ti  Ti4674  1  0.84278367  0.10888370  0.69493061  1.0
  Ti  Ti4675  1  0.84278367  0.27555037  0.69493061  1.0
  Ti  Ti4676  1  0.84278367  0.44221703  0.69493061  1.0
  Ti  Ti4677  1  0.84278367  0.60888370  0.69493061  1.0
  Ti  Ti4678  1  0.84278367  0.77555037  0.69493061  1.0
  Ti  Ti4679  1  0.84278367  0.94221703  0.69493061  1.0
  Ti  Ti4680  1  0.93369276  0.10888370  0.69493061  1.0
  Ti  Ti4681  1  0.93369276  0.27555037  0.69493061  1.0
  Ti  Ti4682  1  0.93369276  0.44221703  0.69493061  1.0
  Ti  Ti4683  1  0.93369276  0.60888370  0.69493061  1.0
  Ti  Ti4684  1  0.93369276  0.77555037  0.69493061  1.0
  Ti  Ti4685  1  0.93369276  0.94221703  0.69493061  1.0
  Ti  Ti4686  1  0.03267081  0.15913871  0.70476366  1.0
  Ti  Ti4687  1  0.03267081  0.32580538  0.70476366  1.0
  Ti  Ti4688  1  0.03267081  0.49247204  0.70476366  1.0
  Ti  Ti4689  1  0.03267081  0.65913871  0.70476366  1.0
  Ti  Ti4690  1  0.03267081  0.82580538  0.70476366  1.0
  Ti  Ti4691  1  0.03267081  0.99247204  0.70476366  1.0
  Ti  Ti4692  1  0.12357990  0.15913871  0.70476366  1.0
  Ti  Ti4693  1  0.12357990  0.32580538  0.70476366  1.0
  Ti  Ti4694  1  0.12357990  0.49247204  0.70476366  1.0
  Ti  Ti4695  1  0.12357990  0.65913871  0.70476366  1.0
  Ti  Ti4696  1  0.12357990  0.82580538  0.70476366  1.0
  Ti  Ti4697  1  0.12357990  0.99247204  0.70476366  1.0
  Ti  Ti4698  1  0.21448899  0.15913871  0.70476366  1.0
  Ti  Ti4699  1  0.21448899  0.32580538  0.70476366  1.0
  Ti  Ti4700  1  0.21448899  0.49247204  0.70476366  1.0
  Ti  Ti4701  1  0.21448899  0.65913871  0.70476366  1.0
  Ti  Ti4702  1  0.21448899  0.82580538  0.70476366  1.0
  Ti  Ti4703  1  0.21448899  0.99247204  0.70476366  1.0
  Ti  Ti4704  1  0.30539808  0.15913871  0.70476366  1.0
  Ti  Ti4705  1  0.30539808  0.32580538  0.70476366  1.0
  Ti  Ti4706  1  0.30539808  0.49247204  0.70476366  1.0
  Ti  Ti4707  1  0.30539808  0.65913871  0.70476366  1.0
  Ti  Ti4708  1  0.30539808  0.82580538  0.70476366  1.0
  Ti  Ti4709  1  0.30539808  0.99247204  0.70476366  1.0
  Ti  Ti4710  1  0.39630717  0.15913871  0.70476366  1.0
  Ti  Ti4711  1  0.39630717  0.32580538  0.70476366  1.0
  Ti  Ti4712  1  0.39630717  0.49247204  0.70476366  1.0
  Ti  Ti4713  1  0.39630717  0.65913871  0.70476366  1.0
  Ti  Ti4714  1  0.39630717  0.82580538  0.70476366  1.0
  Ti  Ti4715  1  0.39630717  0.99247204  0.70476366  1.0
  Ti  Ti4716  1  0.48721626  0.15913871  0.70476366  1.0
  Ti  Ti4717  1  0.48721626  0.32580538  0.70476366  1.0
  Ti  Ti4718  1  0.48721626  0.49247204  0.70476366  1.0
  Ti  Ti4719  1  0.48721626  0.65913871  0.70476366  1.0
  Ti  Ti4720  1  0.48721626  0.82580538  0.70476366  1.0
  Ti  Ti4721  1  0.48721626  0.99247204  0.70476366  1.0
  Ti  Ti4722  1  0.57812535  0.15913871  0.70476366  1.0
  Ti  Ti4723  1  0.57812535  0.32580538  0.70476366  1.0
  Ti  Ti4724  1  0.57812535  0.49247204  0.70476366  1.0
  Ti  Ti4725  1  0.57812535  0.65913871  0.70476366  1.0
  Ti  Ti4726  1  0.57812535  0.82580538  0.70476366  1.0
  Ti  Ti4727  1  0.57812535  0.99247204  0.70476366  1.0
  Ti  Ti4728  1  0.66903444  0.15913871  0.70476366  1.0
  Ti  Ti4729  1  0.66903444  0.32580538  0.70476366  1.0
  Ti  Ti4730  1  0.66903444  0.49247204  0.70476366  1.0
  Ti  Ti4731  1  0.66903444  0.65913871  0.70476366  1.0
  Ti  Ti4732  1  0.66903444  0.82580538  0.70476366  1.0
  Ti  Ti4733  1  0.66903444  0.99247204  0.70476366  1.0
  Ti  Ti4734  1  0.75994354  0.15913871  0.70476366  1.0
  Ti  Ti4735  1  0.75994354  0.32580538  0.70476366  1.0
  Ti  Ti4736  1  0.75994354  0.49247204  0.70476366  1.0
  Ti  Ti4737  1  0.75994354  0.65913871  0.70476366  1.0
  Ti  Ti4738  1  0.75994354  0.82580538  0.70476366  1.0
  Ti  Ti4739  1  0.75994354  0.99247204  0.70476366  1.0
  Ti  Ti4740  1  0.85085263  0.15913871  0.70476366  1.0
  Ti  Ti4741  1  0.85085263  0.32580538  0.70476366  1.0
  Ti  Ti4742  1  0.85085263  0.49247204  0.70476366  1.0
  Ti  Ti4743  1  0.85085263  0.65913871  0.70476366  1.0
  Ti  Ti4744  1  0.85085263  0.82580538  0.70476366  1.0
  Ti  Ti4745  1  0.85085263  0.99247204  0.70476366  1.0
  Ti  Ti4746  1  0.94176172  0.15913871  0.70476366  1.0
  Ti  Ti4747  1  0.94176172  0.32580538  0.70476366  1.0
  Ti  Ti4748  1  0.94176172  0.49247204  0.70476366  1.0
  Ti  Ti4749  1  0.94176172  0.65913871  0.70476366  1.0
  Ti  Ti4750  1  0.94176172  0.82580538  0.70476366  1.0
  Ti  Ti4751  1  0.94176172  0.99247204  0.70476366  1.0
  Ti  Ti4752  1  0.08439766  0.03539742  0.71655938  1.0
  Ti  Ti4753  1  0.08439766  0.20206409  0.71655938  1.0
  Ti  Ti4754  1  0.08439766  0.36873075  0.71655938  1.0
  Ti  Ti4755  1  0.08439766  0.53539742  0.71655938  1.0
  Ti  Ti4756  1  0.08439766  0.70206409  0.71655938  1.0
  Ti  Ti4757  1  0.08439766  0.86873075  0.71655938  1.0
  Ti  Ti4758  1  0.17530675  0.03539742  0.71655938  1.0
  Ti  Ti4759  1  0.17530675  0.20206409  0.71655938  1.0
  Ti  Ti4760  1  0.17530675  0.36873075  0.71655938  1.0
  Ti  Ti4761  1  0.17530675  0.53539742  0.71655938  1.0
  Ti  Ti4762  1  0.17530675  0.70206409  0.71655938  1.0
  Ti  Ti4763  1  0.17530675  0.86873075  0.71655938  1.0
  Ti  Ti4764  1  0.26621584  0.03539742  0.71655938  1.0
  Ti  Ti4765  1  0.26621584  0.20206409  0.71655938  1.0
  Ti  Ti4766  1  0.26621584  0.36873075  0.71655938  1.0
  Ti  Ti4767  1  0.26621584  0.53539742  0.71655938  1.0
  Ti  Ti4768  1  0.26621584  0.70206409  0.71655938  1.0
  Ti  Ti4769  1  0.26621584  0.86873075  0.71655938  1.0
  Ti  Ti4770  1  0.35712493  0.03539742  0.71655938  1.0
  Ti  Ti4771  1  0.35712493  0.20206409  0.71655938  1.0
  Ti  Ti4772  1  0.35712493  0.36873075  0.71655938  1.0
  Ti  Ti4773  1  0.35712493  0.53539742  0.71655938  1.0
  Ti  Ti4774  1  0.35712493  0.70206409  0.71655938  1.0
  Ti  Ti4775  1  0.35712493  0.86873075  0.71655938  1.0
  Ti  Ti4776  1  0.44803402  0.03539742  0.71655938  1.0
  Ti  Ti4777  1  0.44803402  0.20206409  0.71655938  1.0
  Ti  Ti4778  1  0.44803402  0.36873075  0.71655938  1.0
  Ti  Ti4779  1  0.44803402  0.53539742  0.71655938  1.0
  Ti  Ti4780  1  0.44803402  0.70206409  0.71655938  1.0
  Ti  Ti4781  1  0.44803402  0.86873075  0.71655938  1.0
  Ti  Ti4782  1  0.53894311  0.03539742  0.71655938  1.0
  Ti  Ti4783  1  0.53894311  0.20206409  0.71655938  1.0
  Ti  Ti4784  1  0.53894311  0.36873075  0.71655938  1.0
  Ti  Ti4785  1  0.53894311  0.53539742  0.71655938  1.0
  Ti  Ti4786  1  0.53894311  0.70206409  0.71655938  1.0
  Ti  Ti4787  1  0.53894311  0.86873075  0.71655938  1.0
  Ti  Ti4788  1  0.62985220  0.03539742  0.71655938  1.0
  Ti  Ti4789  1  0.62985220  0.20206409  0.71655938  1.0
  Ti  Ti4790  1  0.62985220  0.36873075  0.71655938  1.0
  Ti  Ti4791  1  0.62985220  0.53539742  0.71655938  1.0
  Ti  Ti4792  1  0.62985220  0.70206409  0.71655938  1.0
  Ti  Ti4793  1  0.62985220  0.86873075  0.71655938  1.0
  Ti  Ti4794  1  0.72076129  0.03539742  0.71655938  1.0
  Ti  Ti4795  1  0.72076129  0.20206409  0.71655938  1.0
  Ti  Ti4796  1  0.72076129  0.36873075  0.71655938  1.0
  Ti  Ti4797  1  0.72076129  0.53539742  0.71655938  1.0
  Ti  Ti4798  1  0.72076129  0.70206409  0.71655938  1.0
  Ti  Ti4799  1  0.72076129  0.86873075  0.71655938  1.0
  Ti  Ti4800  1  0.81167038  0.03539742  0.71655938  1.0
  Ti  Ti4801  1  0.81167038  0.20206409  0.71655938  1.0
  Ti  Ti4802  1  0.81167038  0.36873075  0.71655938  1.0
  Ti  Ti4803  1  0.81167038  0.53539742  0.71655938  1.0
  Ti  Ti4804  1  0.81167038  0.70206409  0.71655938  1.0
  Ti  Ti4805  1  0.81167038  0.86873075  0.71655938  1.0
  Ti  Ti4806  1  0.90257947  0.03539742  0.71655938  1.0
  Ti  Ti4807  1  0.90257948  0.20206409  0.71655938  1.0
  Ti  Ti4808  1  0.90257948  0.36873075  0.71655938  1.0
  Ti  Ti4809  1  0.90257947  0.53539742  0.71655938  1.0
  Ti  Ti4810  1  0.90257947  0.70206409  0.71655938  1.0
  Ti  Ti4811  1  0.90257948  0.86873075  0.71655938  1.0
  Ti  Ti4812  1  0.99348857  0.03539742  0.71655938  1.0
  Ti  Ti4813  1  0.99348857  0.20206409  0.71655938  1.0
  Ti  Ti4814  1  0.99348857  0.36873075  0.71655938  1.0
  Ti  Ti4815  1  0.99348857  0.53539742  0.71655938  1.0
  Ti  Ti4816  1  0.99348857  0.70206409  0.71655938  1.0
  Ti  Ti4817  1  0.99348857  0.86873075  0.71655938  1.0
  Ti  Ti4818  1  0.03894311  0.04730218  0.64513081  1.0
  Ti  Ti4819  1  0.03894311  0.21396885  0.64513081  1.0
  Ti  Ti4820  1  0.03894311  0.38063552  0.64513081  1.0
  Ti  Ti4821  1  0.03894311  0.54730218  0.64513081  1.0
  Ti  Ti4822  1  0.03894311  0.71396885  0.64513081  1.0
  Ti  Ti4823  1  0.03894311  0.88063552  0.64513081  1.0
  Ti  Ti4824  1  0.12985220  0.04730218  0.64513081  1.0
  Ti  Ti4825  1  0.12985220  0.21396885  0.64513081  1.0
  Ti  Ti4826  1  0.12985220  0.38063552  0.64513081  1.0
  Ti  Ti4827  1  0.12985220  0.54730218  0.64513081  1.0
  Ti  Ti4828  1  0.12985220  0.71396885  0.64513081  1.0
  Ti  Ti4829  1  0.12985220  0.88063552  0.64513081  1.0
  Ti  Ti4830  1  0.22076129  0.04730218  0.64513081  1.0
  Ti  Ti4831  1  0.22076129  0.21396885  0.64513081  1.0
  Ti  Ti4832  1  0.22076129  0.38063552  0.64513081  1.0
  Ti  Ti4833  1  0.22076129  0.54730218  0.64513081  1.0
  Ti  Ti4834  1  0.22076129  0.71396885  0.64513081  1.0
  Ti  Ti4835  1  0.22076129  0.88063552  0.64513081  1.0
  Ti  Ti4836  1  0.31167038  0.04730218  0.64513081  1.0
  Ti  Ti4837  1  0.31167038  0.21396885  0.64513081  1.0
  Ti  Ti4838  1  0.31167038  0.38063552  0.64513081  1.0
  Ti  Ti4839  1  0.31167038  0.54730218  0.64513081  1.0
  Ti  Ti4840  1  0.31167038  0.71396885  0.64513081  1.0
  Ti  Ti4841  1  0.31167038  0.88063552  0.64513081  1.0
  Ti  Ti4842  1  0.40257948  0.04730218  0.64513081  1.0
  Ti  Ti4843  1  0.40257948  0.21396885  0.64513081  1.0
  Ti  Ti4844  1  0.40257948  0.38063552  0.64513081  1.0
  Ti  Ti4845  1  0.40257948  0.54730218  0.64513081  1.0
  Ti  Ti4846  1  0.40257947  0.71396885  0.64513081  1.0
  Ti  Ti4847  1  0.40257947  0.88063552  0.64513081  1.0
  Ti  Ti4848  1  0.49348857  0.04730218  0.64513081  1.0
  Ti  Ti4849  1  0.49348857  0.21396885  0.64513081  1.0
  Ti  Ti4850  1  0.49348857  0.38063552  0.64513081  1.0
  Ti  Ti4851  1  0.49348857  0.54730218  0.64513081  1.0
  Ti  Ti4852  1  0.49348857  0.71396885  0.64513081  1.0
  Ti  Ti4853  1  0.49348857  0.88063552  0.64513081  1.0
  Ti  Ti4854  1  0.58439766  0.04730218  0.64513081  1.0
  Ti  Ti4855  1  0.58439766  0.21396885  0.64513081  1.0
  Ti  Ti4856  1  0.58439766  0.38063552  0.64513081  1.0
  Ti  Ti4857  1  0.58439766  0.54730218  0.64513081  1.0
  Ti  Ti4858  1  0.58439766  0.71396885  0.64513081  1.0
  Ti  Ti4859  1  0.58439766  0.88063552  0.64513081  1.0
  Ti  Ti4860  1  0.67530675  0.04730218  0.64513081  1.0
  Ti  Ti4861  1  0.67530675  0.21396885  0.64513081  1.0
  Ti  Ti4862  1  0.67530675  0.38063552  0.64513081  1.0
  Ti  Ti4863  1  0.67530675  0.54730218  0.64513081  1.0
  Ti  Ti4864  1  0.67530675  0.71396885  0.64513081  1.0
  Ti  Ti4865  1  0.67530675  0.88063552  0.64513081  1.0
  Ti  Ti4866  1  0.76621584  0.04730218  0.64513081  1.0
  Ti  Ti4867  1  0.76621584  0.21396885  0.64513081  1.0
  Ti  Ti4868  1  0.76621584  0.38063552  0.64513081  1.0
  Ti  Ti4869  1  0.76621584  0.54730218  0.64513081  1.0
  Ti  Ti4870  1  0.76621584  0.71396885  0.64513081  1.0
  Ti  Ti4871  1  0.76621584  0.88063552  0.64513081  1.0
  Ti  Ti4872  1  0.85712493  0.04730218  0.64513081  1.0
  Ti  Ti4873  1  0.85712493  0.21396885  0.64513081  1.0
  Ti  Ti4874  1  0.85712493  0.38063552  0.64513081  1.0
  Ti  Ti4875  1  0.85712493  0.54730218  0.64513081  1.0
  Ti  Ti4876  1  0.85712493  0.71396885  0.64513081  1.0
  Ti  Ti4877  1  0.85712493  0.88063552  0.64513081  1.0
  Ti  Ti4878  1  0.94803402  0.04730218  0.64513081  1.0
  Ti  Ti4879  1  0.94803402  0.21396885  0.64513081  1.0
  Ti  Ti4880  1  0.94803402  0.38063552  0.64513081  1.0
  Ti  Ti4881  1  0.94803402  0.54730218  0.64513081  1.0
  Ti  Ti4882  1  0.94803402  0.71396885  0.64513081  1.0
  Ti  Ti4883  1  0.94803402  0.88063552  0.64513081  1.0
  Ti  Ti4884  1  0.07234305  0.11088809  0.69671628  1.0
  Ti  Ti4885  1  0.07234305  0.27755475  0.69671628  1.0
  Ti  Ti4886  1  0.07234305  0.44422142  0.69671628  1.0
  Ti  Ti4887  1  0.07234305  0.61088809  0.69671628  1.0
  Ti  Ti4888  1  0.07234305  0.77755475  0.69671628  1.0
  Ti  Ti4889  1  0.07234305  0.94422142  0.69671628  1.0
  Ti  Ti4890  1  0.16325214  0.11088809  0.69671628  1.0
  Ti  Ti4891  1  0.16325214  0.27755475  0.69671628  1.0
  Ti  Ti4892  1  0.16325214  0.44422142  0.69671628  1.0
  Ti  Ti4893  1  0.16325214  0.61088809  0.69671628  1.0
  Ti  Ti4894  1  0.16325214  0.77755475  0.69671628  1.0
  Ti  Ti4895  1  0.16325214  0.94422142  0.69671628  1.0
  Ti  Ti4896  1  0.25416123  0.11088809  0.69671628  1.0
  Ti  Ti4897  1  0.25416123  0.27755475  0.69671628  1.0
  Ti  Ti4898  1  0.25416123  0.44422142  0.69671628  1.0
  Ti  Ti4899  1  0.25416123  0.61088809  0.69671628  1.0
  Ti  Ti4900  1  0.25416123  0.77755475  0.69671628  1.0
  Ti  Ti4901  1  0.25416123  0.94422142  0.69671628  1.0
  Ti  Ti4902  1  0.34507032  0.11088809  0.69671628  1.0
  Ti  Ti4903  1  0.34507032  0.27755475  0.69671628  1.0
  Ti  Ti4904  1  0.34507032  0.44422142  0.69671628  1.0
  Ti  Ti4905  1  0.34507032  0.61088809  0.69671628  1.0
  Ti  Ti4906  1  0.34507032  0.77755475  0.69671628  1.0
  Ti  Ti4907  1  0.34507032  0.94422142  0.69671628  1.0
  Ti  Ti4908  1  0.43597941  0.11088809  0.69671628  1.0
  Ti  Ti4909  1  0.43597941  0.27755475  0.69671628  1.0
  Ti  Ti4910  1  0.43597941  0.44422142  0.69671628  1.0
  Ti  Ti4911  1  0.43597941  0.61088809  0.69671628  1.0
  Ti  Ti4912  1  0.43597941  0.77755475  0.69671628  1.0
  Ti  Ti4913  1  0.43597941  0.94422142  0.69671628  1.0
  Ti  Ti4914  1  0.52688851  0.11088809  0.69671628  1.0
  Ti  Ti4915  1  0.52688851  0.27755475  0.69671628  1.0
  Ti  Ti4916  1  0.52688851  0.44422142  0.69671628  1.0
  Ti  Ti4917  1  0.52688851  0.61088809  0.69671628  1.0
  Ti  Ti4918  1  0.52688851  0.77755475  0.69671628  1.0
  Ti  Ti4919  1  0.52688851  0.94422142  0.69671628  1.0
  Ti  Ti4920  1  0.61779760  0.11088809  0.69671628  1.0
  Ti  Ti4921  1  0.61779760  0.27755475  0.69671628  1.0
  Ti  Ti4922  1  0.61779760  0.44422142  0.69671628  1.0
  Ti  Ti4923  1  0.61779760  0.61088809  0.69671628  1.0
  Ti  Ti4924  1  0.61779760  0.77755475  0.69671628  1.0
  Ti  Ti4925  1  0.61779760  0.94422142  0.69671628  1.0
  Ti  Ti4926  1  0.70870669  0.11088809  0.69671628  1.0
  Ti  Ti4927  1  0.70870669  0.27755475  0.69671628  1.0
  Ti  Ti4928  1  0.70870669  0.44422142  0.69671628  1.0
  Ti  Ti4929  1  0.70870669  0.61088809  0.69671628  1.0
  Ti  Ti4930  1  0.70870669  0.77755475  0.69671628  1.0
  Ti  Ti4931  1  0.70870669  0.94422142  0.69671628  1.0
  Ti  Ti4932  1  0.79961578  0.11088809  0.69671628  1.0
  Ti  Ti4933  1  0.79961578  0.27755475  0.69671628  1.0
  Ti  Ti4934  1  0.79961578  0.44422142  0.69671628  1.0
  Ti  Ti4935  1  0.79961578  0.61088809  0.69671628  1.0
  Ti  Ti4936  1  0.79961578  0.77755475  0.69671628  1.0
  Ti  Ti4937  1  0.79961578  0.94422142  0.69671628  1.0
  Ti  Ti4938  1  0.89052487  0.11088809  0.69671628  1.0
  Ti  Ti4939  1  0.89052487  0.27755475  0.69671628  1.0
  Ti  Ti4940  1  0.89052487  0.44422142  0.69671628  1.0
  Ti  Ti4941  1  0.89052487  0.61088809  0.69671628  1.0
  Ti  Ti4942  1  0.89052487  0.77755475  0.69671628  1.0
  Ti  Ti4943  1  0.89052487  0.94422142  0.69671628  1.0
  Ti  Ti4944  1  0.98143396  0.11088809  0.69671628  1.0
  Ti  Ti4945  1  0.98143396  0.27755475  0.69671628  1.0
  Ti  Ti4946  1  0.98143396  0.44422142  0.69671628  1.0
  Ti  Ti4947  1  0.98143396  0.61088809  0.69671628  1.0
  Ti  Ti4948  1  0.98143396  0.77755475  0.69671628  1.0
  Ti  Ti4949  1  0.98143396  0.94422142  0.69671628  1.0
  Ti  Ti4950  1  0.01420640  0.01772288  0.67661418  1.0
  Ti  Ti4951  1  0.01420640  0.18438955  0.67661418  1.0
  Ti  Ti4952  1  0.01420640  0.35105621  0.67661418  1.0
  Ti  Ti4953  1  0.01420640  0.51772288  0.67661418  1.0
  Ti  Ti4954  1  0.01420640  0.68438955  0.67661418  1.0
  Ti  Ti4955  1  0.01420640  0.85105621  0.67661418  1.0
  Ti  Ti4956  1  0.10511550  0.01772288  0.67661418  1.0
  Ti  Ti4957  1  0.10511550  0.18438955  0.67661418  1.0
  Ti  Ti4958  1  0.10511550  0.35105621  0.67661418  1.0
  Ti  Ti4959  1  0.10511550  0.51772288  0.67661418  1.0
  Ti  Ti4960  1  0.10511550  0.68438955  0.67661418  1.0
  Ti  Ti4961  1  0.10511550  0.85105621  0.67661418  1.0
  Ti  Ti4962  1  0.19602459  0.01772288  0.67661418  1.0
  Ti  Ti4963  1  0.19602459  0.18438955  0.67661418  1.0
  Ti  Ti4964  1  0.19602459  0.35105621  0.67661418  1.0
  Ti  Ti4965  1  0.19602459  0.51772288  0.67661418  1.0
  Ti  Ti4966  1  0.19602459  0.68438955  0.67661418  1.0
  Ti  Ti4967  1  0.19602459  0.85105621  0.67661418  1.0
  Ti  Ti4968  1  0.28693368  0.01772288  0.67661418  1.0
  Ti  Ti4969  1  0.28693368  0.18438955  0.67661418  1.0
  Ti  Ti4970  1  0.28693368  0.35105621  0.67661418  1.0
  Ti  Ti4971  1  0.28693368  0.51772288  0.67661418  1.0
  Ti  Ti4972  1  0.28693368  0.68438955  0.67661418  1.0
  Ti  Ti4973  1  0.28693368  0.85105621  0.67661418  1.0
  Ti  Ti4974  1  0.37784277  0.01772288  0.67661418  1.0
  Ti  Ti4975  1  0.37784277  0.18438955  0.67661418  1.0
  Ti  Ti4976  1  0.37784277  0.35105621  0.67661418  1.0
  Ti  Ti4977  1  0.37784277  0.51772288  0.67661418  1.0
  Ti  Ti4978  1  0.37784277  0.68438955  0.67661418  1.0
  Ti  Ti4979  1  0.37784277  0.85105621  0.67661418  1.0
  Ti  Ti4980  1  0.46875186  0.01772288  0.67661418  1.0
  Ti  Ti4981  1  0.46875186  0.18438955  0.67661418  1.0
  Ti  Ti4982  1  0.46875186  0.35105621  0.67661418  1.0
  Ti  Ti4983  1  0.46875186  0.51772288  0.67661418  1.0
  Ti  Ti4984  1  0.46875186  0.68438955  0.67661418  1.0
  Ti  Ti4985  1  0.46875186  0.85105621  0.67661418  1.0
  Ti  Ti4986  1  0.55966095  0.01772288  0.67661418  1.0
  Ti  Ti4987  1  0.55966095  0.18438955  0.67661418  1.0
  Ti  Ti4988  1  0.55966095  0.35105621  0.67661418  1.0
  Ti  Ti4989  1  0.55966095  0.51772288  0.67661418  1.0
  Ti  Ti4990  1  0.55966095  0.68438955  0.67661418  1.0
  Ti  Ti4991  1  0.55966095  0.85105621  0.67661418  1.0
  Ti  Ti4992  1  0.65057004  0.01772288  0.67661418  1.0
  Ti  Ti4993  1  0.65057004  0.18438955  0.67661418  1.0
  Ti  Ti4994  1  0.65057004  0.35105621  0.67661418  1.0
  Ti  Ti4995  1  0.65057004  0.51772288  0.67661418  1.0
  Ti  Ti4996  1  0.65057004  0.68438955  0.67661418  1.0
  Ti  Ti4997  1  0.65057004  0.85105621  0.67661418  1.0
  Ti  Ti4998  1  0.74147913  0.01772288  0.67661418  1.0
  Ti  Ti4999  1  0.74147913  0.18438955  0.67661418  1.0
  Ti  Ti5000  1  0.74147913  0.35105621  0.67661418  1.0
  Ti  Ti5001  1  0.74147913  0.51772288  0.67661418  1.0
  Ti  Ti5002  1  0.74147913  0.68438955  0.67661418  1.0
  Ti  Ti5003  1  0.74147913  0.85105621  0.67661418  1.0
  Ti  Ti5004  1  0.83238822  0.01772288  0.67661418  1.0
  Ti  Ti5005  1  0.83238822  0.18438955  0.67661418  1.0
  Ti  Ti5006  1  0.83238822  0.35105621  0.67661418  1.0
  Ti  Ti5007  1  0.83238822  0.51772288  0.67661418  1.0
  Ti  Ti5008  1  0.83238822  0.68438955  0.67661418  1.0
  Ti  Ti5009  1  0.83238822  0.85105621  0.67661418  1.0
  Ti  Ti5010  1  0.92329731  0.01772288  0.67661418  1.0
  Ti  Ti5011  1  0.92329731  0.18438955  0.67661418  1.0
  Ti  Ti5012  1  0.92329731  0.35105621  0.67661418  1.0
  Ti  Ti5013  1  0.92329731  0.51772288  0.67661418  1.0
  Ti  Ti5014  1  0.92329731  0.68438955  0.67661418  1.0
  Ti  Ti5015  1  0.92329731  0.85105621  0.67661418  1.0
  Ti  Ti5016  1  0.01818033  0.06491063  0.68507859  1.0
  Ti  Ti5017  1  0.01818033  0.23157729  0.68507859  1.0
  Ti  Ti5018  1  0.01818033  0.39824396  0.68507859  1.0
  Ti  Ti5019  1  0.01818033  0.56491063  0.68507859  1.0
  Ti  Ti5020  1  0.01818033  0.73157729  0.68507859  1.0
  Ti  Ti5021  1  0.01818033  0.89824396  0.68507859  1.0
  Ti  Ti5022  1  0.10908942  0.06491063  0.68507859  1.0
  Ti  Ti5023  1  0.10908942  0.23157729  0.68507859  1.0
  Ti  Ti5024  1  0.10908942  0.39824396  0.68507859  1.0
  Ti  Ti5025  1  0.10908942  0.56491063  0.68507859  1.0
  Ti  Ti5026  1  0.10908942  0.73157729  0.68507859  1.0
  Ti  Ti5027  1  0.10908942  0.89824396  0.68507859  1.0
  Ti  Ti5028  1  0.19999851  0.06491063  0.68507859  1.0
  Ti  Ti5029  1  0.19999851  0.23157729  0.68507859  1.0
  Ti  Ti5030  1  0.19999851  0.39824396  0.68507859  1.0
  Ti  Ti5031  1  0.19999851  0.56491063  0.68507859  1.0
  Ti  Ti5032  1  0.19999851  0.73157729  0.68507859  1.0
  Ti  Ti5033  1  0.19999851  0.89824396  0.68507859  1.0
  Ti  Ti5034  1  0.29090761  0.06491063  0.68507859  1.0
  Ti  Ti5035  1  0.29090761  0.23157729  0.68507859  1.0
  Ti  Ti5036  1  0.29090761  0.39824396  0.68507859  1.0
  Ti  Ti5037  1  0.29090761  0.56491063  0.68507859  1.0
  Ti  Ti5038  1  0.29090761  0.73157729  0.68507859  1.0
  Ti  Ti5039  1  0.29090761  0.89824396  0.68507859  1.0
  Ti  Ti5040  1  0.38181670  0.06491063  0.68507859  1.0
  Ti  Ti5041  1  0.38181670  0.23157729  0.68507859  1.0
  Ti  Ti5042  1  0.38181670  0.39824396  0.68507859  1.0
  Ti  Ti5043  1  0.38181670  0.56491063  0.68507859  1.0
  Ti  Ti5044  1  0.38181670  0.73157729  0.68507859  1.0
  Ti  Ti5045  1  0.38181670  0.89824396  0.68507859  1.0
  Ti  Ti5046  1  0.47272579  0.06491063  0.68507859  1.0
  Ti  Ti5047  1  0.47272579  0.23157729  0.68507859  1.0
  Ti  Ti5048  1  0.47272579  0.39824396  0.68507859  1.0
  Ti  Ti5049  1  0.47272579  0.56491063  0.68507859  1.0
  Ti  Ti5050  1  0.47272579  0.73157729  0.68507859  1.0
  Ti  Ti5051  1  0.47272579  0.89824396  0.68507859  1.0
  Ti  Ti5052  1  0.56363488  0.06491063  0.68507859  1.0
  Ti  Ti5053  1  0.56363488  0.23157729  0.68507859  1.0
  Ti  Ti5054  1  0.56363488  0.39824396  0.68507859  1.0
  Ti  Ti5055  1  0.56363488  0.56491063  0.68507859  1.0
  Ti  Ti5056  1  0.56363488  0.73157729  0.68507859  1.0
  Ti  Ti5057  1  0.56363488  0.89824396  0.68507859  1.0
  Ti  Ti5058  1  0.65454397  0.06491063  0.68507859  1.0
  Ti  Ti5059  1  0.65454397  0.23157729  0.68507859  1.0
  Ti  Ti5060  1  0.65454397  0.39824396  0.68507859  1.0
  Ti  Ti5061  1  0.65454397  0.56491063  0.68507859  1.0
  Ti  Ti5062  1  0.65454397  0.73157729  0.68507859  1.0
  Ti  Ti5063  1  0.65454397  0.89824396  0.68507859  1.0
  Ti  Ti5064  1  0.74545306  0.06491063  0.68507859  1.0
  Ti  Ti5065  1  0.74545306  0.23157729  0.68507859  1.0
  Ti  Ti5066  1  0.74545306  0.39824396  0.68507859  1.0
  Ti  Ti5067  1  0.74545306  0.56491063  0.68507859  1.0
  Ti  Ti5068  1  0.74545306  0.73157729  0.68507859  1.0
  Ti  Ti5069  1  0.74545306  0.89824396  0.68507859  1.0
  Ti  Ti5070  1  0.83636215  0.06491063  0.68507859  1.0
  Ti  Ti5071  1  0.83636215  0.23157729  0.68507859  1.0
  Ti  Ti5072  1  0.83636215  0.39824396  0.68507859  1.0
  Ti  Ti5073  1  0.83636215  0.56491063  0.68507859  1.0
  Ti  Ti5074  1  0.83636215  0.73157729  0.68507859  1.0
  Ti  Ti5075  1  0.83636215  0.89824396  0.68507859  1.0
  Ti  Ti5076  1  0.92727124  0.06491063  0.68507859  1.0
  Ti  Ti5077  1  0.92727124  0.23157729  0.68507859  1.0
  Ti  Ti5078  1  0.92727124  0.39824396  0.68507859  1.0
  Ti  Ti5079  1  0.92727124  0.56491063  0.68507859  1.0
  Ti  Ti5080  1  0.92727124  0.73157729  0.68507859  1.0
  Ti  Ti5081  1  0.92727124  0.89824396  0.68507859  1.0
  Ti  Ti5082  1  0.00784394  0.14045672  0.66677432  1.0
  Ti  Ti5083  1  0.00784394  0.30712339  0.66677432  1.0
  Ti  Ti5084  1  0.00784394  0.47379006  0.66677432  1.0
  Ti  Ti5085  1  0.00784394  0.64045672  0.66677432  1.0
  Ti  Ti5086  1  0.00784394  0.80712339  0.66677432  1.0
  Ti  Ti5087  1  0.00784394  0.97379006  0.66677432  1.0
  Ti  Ti5088  1  0.09875303  0.14045672  0.66677432  1.0
  Ti  Ti5089  1  0.09875303  0.30712339  0.66677432  1.0
  Ti  Ti5090  1  0.09875303  0.47379006  0.66677432  1.0
  Ti  Ti5091  1  0.09875303  0.64045672  0.66677432  1.0
  Ti  Ti5092  1  0.09875303  0.80712339  0.66677432  1.0
  Ti  Ti5093  1  0.09875303  0.97379006  0.66677432  1.0
  Ti  Ti5094  1  0.18966212  0.14045672  0.66677432  1.0
  Ti  Ti5095  1  0.18966212  0.30712339  0.66677432  1.0
  Ti  Ti5096  1  0.18966212  0.47379006  0.66677432  1.0
  Ti  Ti5097  1  0.18966212  0.64045672  0.66677432  1.0
  Ti  Ti5098  1  0.18966212  0.80712339  0.66677432  1.0
  Ti  Ti5099  1  0.18966212  0.97379006  0.66677432  1.0
  Ti  Ti5100  1  0.28057121  0.14045672  0.66677432  1.0
  Ti  Ti5101  1  0.28057121  0.30712339  0.66677432  1.0
  Ti  Ti5102  1  0.28057121  0.47379006  0.66677432  1.0
  Ti  Ti5103  1  0.28057121  0.64045672  0.66677432  1.0
  Ti  Ti5104  1  0.28057121  0.80712339  0.66677432  1.0
  Ti  Ti5105  1  0.28057121  0.97379006  0.66677432  1.0
  Ti  Ti5106  1  0.37148030  0.14045672  0.66677432  1.0
  Ti  Ti5107  1  0.37148030  0.30712339  0.66677432  1.0
  Ti  Ti5108  1  0.37148030  0.47379006  0.66677432  1.0
  Ti  Ti5109  1  0.37148030  0.64045672  0.66677432  1.0
  Ti  Ti5110  1  0.37148030  0.80712339  0.66677432  1.0
  Ti  Ti5111  1  0.37148030  0.97379006  0.66677432  1.0
  Ti  Ti5112  1  0.46238939  0.14045672  0.66677432  1.0
  Ti  Ti5113  1  0.46238939  0.30712339  0.66677432  1.0
  Ti  Ti5114  1  0.46238939  0.47379006  0.66677432  1.0
  Ti  Ti5115  1  0.46238939  0.64045672  0.66677432  1.0
  Ti  Ti5116  1  0.46238939  0.80712339  0.66677432  1.0
  Ti  Ti5117  1  0.46238939  0.97379006  0.66677432  1.0
  Ti  Ti5118  1  0.55329848  0.14045672  0.66677432  1.0
  Ti  Ti5119  1  0.55329848  0.30712339  0.66677432  1.0
  Ti  Ti5120  1  0.55329848  0.47379006  0.66677432  1.0
  Ti  Ti5121  1  0.55329848  0.64045672  0.66677432  1.0
  Ti  Ti5122  1  0.55329848  0.80712339  0.66677432  1.0
  Ti  Ti5123  1  0.55329848  0.97379006  0.66677432  1.0
  Ti  Ti5124  1  0.64420758  0.14045672  0.66677432  1.0
  Ti  Ti5125  1  0.64420758  0.30712339  0.66677432  1.0
  Ti  Ti5126  1  0.64420758  0.47379006  0.66677432  1.0
  Ti  Ti5127  1  0.64420758  0.64045672  0.66677432  1.0
  Ti  Ti5128  1  0.64420758  0.80712339  0.66677432  1.0
  Ti  Ti5129  1  0.64420758  0.97379006  0.66677432  1.0
  Ti  Ti5130  1  0.73511667  0.14045672  0.66677432  1.0
  Ti  Ti5131  1  0.73511667  0.30712339  0.66677432  1.0
  Ti  Ti5132  1  0.73511667  0.47379006  0.66677432  1.0
  Ti  Ti5133  1  0.73511667  0.64045672  0.66677432  1.0
  Ti  Ti5134  1  0.73511667  0.80712339  0.66677432  1.0
  Ti  Ti5135  1  0.73511667  0.97379006  0.66677432  1.0
  Ti  Ti5136  1  0.82602576  0.14045672  0.66677432  1.0
  Ti  Ti5137  1  0.82602576  0.30712339  0.66677432  1.0
  Ti  Ti5138  1  0.82602576  0.47379006  0.66677432  1.0
  Ti  Ti5139  1  0.82602576  0.64045672  0.66677432  1.0
  Ti  Ti5140  1  0.82602576  0.80712339  0.66677432  1.0
  Ti  Ti5141  1  0.82602576  0.97379006  0.66677432  1.0
  Ti  Ti5142  1  0.91693485  0.14045672  0.66677432  1.0
  Ti  Ti5143  1  0.91693485  0.30712339  0.66677432  1.0
  Ti  Ti5144  1  0.91693485  0.47379006  0.66677432  1.0
  Ti  Ti5145  1  0.91693485  0.64045672  0.66677432  1.0
  Ti  Ti5146  1  0.91693485  0.80712339  0.66677432  1.0
  Ti  Ti5147  1  0.91693485  0.97379006  0.66677432  1.0
  O  O5148  1  0.03896435  0.11326774  0.25230567  1.0
  O  O5149  1  0.03896435  0.27993441  0.25230567  1.0
  O  O5150  1  0.03896435  0.44660107  0.25230567  1.0
  O  O5151  1  0.03896435  0.61326774  0.25230567  1.0
  O  O5152  1  0.03896435  0.77993441  0.25230567  1.0
  O  O5153  1  0.03896435  0.94660107  0.25230567  1.0
  O  O5154  1  0.12987344  0.11326774  0.25230567  1.0
  O  O5155  1  0.12987344  0.27993441  0.25230567  1.0
  O  O5156  1  0.12987344  0.44660107  0.25230567  1.0
  O  O5157  1  0.12987344  0.61326774  0.25230567  1.0
  O  O5158  1  0.12987344  0.77993441  0.25230567  1.0
  O  O5159  1  0.12987344  0.94660107  0.25230567  1.0
  O  O5160  1  0.22078253  0.11326774  0.25230567  1.0
  O  O5161  1  0.22078253  0.27993441  0.25230567  1.0
  O  O5162  1  0.22078253  0.44660107  0.25230567  1.0
  O  O5163  1  0.22078253  0.61326774  0.25230567  1.0
  O  O5164  1  0.22078253  0.77993441  0.25230567  1.0
  O  O5165  1  0.22078253  0.94660107  0.25230567  1.0
  O  O5166  1  0.31169162  0.11326774  0.25230567  1.0
  O  O5167  1  0.31169162  0.27993441  0.25230567  1.0
  O  O5168  1  0.31169162  0.44660107  0.25230567  1.0
  O  O5169  1  0.31169162  0.61326774  0.25230567  1.0
  O  O5170  1  0.31169162  0.77993441  0.25230567  1.0
  O  O5171  1  0.31169162  0.94660107  0.25230567  1.0
  O  O5172  1  0.40260071  0.11326774  0.25230567  1.0
  O  O5173  1  0.40260071  0.27993441  0.25230567  1.0
  O  O5174  1  0.40260071  0.44660107  0.25230567  1.0
  O  O5175  1  0.40260071  0.61326774  0.25230567  1.0
  O  O5176  1  0.40260071  0.77993441  0.25230567  1.0
  O  O5177  1  0.40260071  0.94660107  0.25230567  1.0
  O  O5178  1  0.49350980  0.11326774  0.25230567  1.0
  O  O5179  1  0.49350980  0.27993441  0.25230567  1.0
  O  O5180  1  0.49350980  0.44660107  0.25230567  1.0
  O  O5181  1  0.49350980  0.61326774  0.25230567  1.0
  O  O5182  1  0.49350980  0.77993441  0.25230567  1.0
  O  O5183  1  0.49350980  0.94660107  0.25230567  1.0
  O  O5184  1  0.58441889  0.11326774  0.25230567  1.0
  O  O5185  1  0.58441889  0.27993441  0.25230567  1.0
  O  O5186  1  0.58441889  0.44660107  0.25230567  1.0
  O  O5187  1  0.58441889  0.61326774  0.25230567  1.0
  O  O5188  1  0.58441889  0.77993441  0.25230567  1.0
  O  O5189  1  0.58441889  0.94660107  0.25230567  1.0
  O  O5190  1  0.67532798  0.11326774  0.25230567  1.0
  O  O5191  1  0.67532798  0.27993441  0.25230567  1.0
  O  O5192  1  0.67532798  0.44660107  0.25230567  1.0
  O  O5193  1  0.67532798  0.61326774  0.25230567  1.0
  O  O5194  1  0.67532798  0.77993441  0.25230567  1.0
  O  O5195  1  0.67532798  0.94660107  0.25230567  1.0
  O  O5196  1  0.76623707  0.11326774  0.25230567  1.0
  O  O5197  1  0.76623707  0.27993441  0.25230567  1.0
  O  O5198  1  0.76623707  0.44660107  0.25230567  1.0
  O  O5199  1  0.76623707  0.61326774  0.25230567  1.0
  O  O5200  1  0.76623707  0.77993441  0.25230567  1.0
  O  O5201  1  0.76623707  0.94660107  0.25230567  1.0
  O  O5202  1  0.85714616  0.11326774  0.25230567  1.0
  O  O5203  1  0.85714616  0.27993441  0.25230567  1.0
  O  O5204  1  0.85714616  0.44660107  0.25230567  1.0
  O  O5205  1  0.85714616  0.61326774  0.25230567  1.0
  O  O5206  1  0.85714616  0.77993441  0.25230567  1.0
  O  O5207  1  0.85714616  0.94660107  0.25230567  1.0
  O  O5208  1  0.94805525  0.11326774  0.25230567  1.0
  O  O5209  1  0.94805525  0.27993441  0.25230567  1.0
  O  O5210  1  0.94805525  0.44660107  0.25230567  1.0
  O  O5211  1  0.94805525  0.61326774  0.25230567  1.0
  O  O5212  1  0.94805525  0.77993441  0.25230567  1.0
  O  O5213  1  0.94805525  0.94660107  0.25230567  1.0
  O  O5214  1  0.08441889  0.10136298  0.32373424  1.0
  O  O5215  1  0.08441889  0.26802964  0.32373424  1.0
  O  O5216  1  0.08441889  0.43469631  0.32373424  1.0
  O  O5217  1  0.08441889  0.60136298  0.32373424  1.0
  O  O5218  1  0.08441889  0.76802965  0.32373424  1.0
  O  O5219  1  0.08441889  0.93469631  0.32373424  1.0
  O  O5220  1  0.17532798  0.10136298  0.32373424  1.0
  O  O5221  1  0.17532798  0.26802964  0.32373424  1.0
  O  O5222  1  0.17532798  0.43469631  0.32373424  1.0
  O  O5223  1  0.17532798  0.60136298  0.32373424  1.0
  O  O5224  1  0.17532798  0.76802965  0.32373424  1.0
  O  O5225  1  0.17532798  0.93469631  0.32373424  1.0
  O  O5226  1  0.26623707  0.10136298  0.32373424  1.0
  O  O5227  1  0.26623707  0.26802964  0.32373424  1.0
  O  O5228  1  0.26623707  0.43469631  0.32373424  1.0
  O  O5229  1  0.26623707  0.60136298  0.32373424  1.0
  O  O5230  1  0.26623707  0.76802965  0.32373424  1.0
  O  O5231  1  0.26623707  0.93469631  0.32373424  1.0
  O  O5232  1  0.35714616  0.10136298  0.32373424  1.0
  O  O5233  1  0.35714616  0.26802964  0.32373424  1.0
  O  O5234  1  0.35714616  0.43469631  0.32373424  1.0
  O  O5235  1  0.35714616  0.60136298  0.32373424  1.0
  O  O5236  1  0.35714616  0.76802965  0.32373424  1.0
  O  O5237  1  0.35714616  0.93469631  0.32373424  1.0
  O  O5238  1  0.44805525  0.10136298  0.32373424  1.0
  O  O5239  1  0.44805525  0.26802964  0.32373424  1.0
  O  O5240  1  0.44805525  0.43469631  0.32373424  1.0
  O  O5241  1  0.44805525  0.60136298  0.32373424  1.0
  O  O5242  1  0.44805525  0.76802965  0.32373424  1.0
  O  O5243  1  0.44805525  0.93469631  0.32373424  1.0
  O  O5244  1  0.53896435  0.10136298  0.32373424  1.0
  O  O5245  1  0.53896435  0.26802964  0.32373424  1.0
  O  O5246  1  0.53896435  0.43469631  0.32373424  1.0
  O  O5247  1  0.53896435  0.60136298  0.32373424  1.0
  O  O5248  1  0.53896435  0.76802965  0.32373424  1.0
  O  O5249  1  0.53896435  0.93469631  0.32373424  1.0
  O  O5250  1  0.62987344  0.10136298  0.32373424  1.0
  O  O5251  1  0.62987344  0.26802964  0.32373424  1.0
  O  O5252  1  0.62987344  0.43469631  0.32373424  1.0
  O  O5253  1  0.62987344  0.60136298  0.32373424  1.0
  O  O5254  1  0.62987344  0.76802965  0.32373424  1.0
  O  O5255  1  0.62987344  0.93469631  0.32373424  1.0
  O  O5256  1  0.72078253  0.10136298  0.32373424  1.0
  O  O5257  1  0.72078253  0.26802964  0.32373424  1.0
  O  O5258  1  0.72078253  0.43469631  0.32373424  1.0
  O  O5259  1  0.72078253  0.60136298  0.32373424  1.0
  O  O5260  1  0.72078253  0.76802965  0.32373424  1.0
  O  O5261  1  0.72078253  0.93469631  0.32373424  1.0
  O  O5262  1  0.81169162  0.10136298  0.32373424  1.0
  O  O5263  1  0.81169162  0.26802964  0.32373424  1.0
  O  O5264  1  0.81169162  0.43469631  0.32373424  1.0
  O  O5265  1  0.81169162  0.60136298  0.32373424  1.0
  O  O5266  1  0.81169162  0.76802965  0.32373424  1.0
  O  O5267  1  0.81169162  0.93469631  0.32373424  1.0
  O  O5268  1  0.90260071  0.10136298  0.32373424  1.0
  O  O5269  1  0.90260071  0.26802964  0.32373424  1.0
  O  O5270  1  0.90260071  0.43469631  0.32373424  1.0
  O  O5271  1  0.90260071  0.60136298  0.32373424  1.0
  O  O5272  1  0.90260071  0.76802965  0.32373424  1.0
  O  O5273  1  0.90260071  0.93469631  0.32373424  1.0
  O  O5274  1  0.99350980  0.10136298  0.32373424  1.0
  O  O5275  1  0.99350980  0.26802964  0.32373424  1.0
  O  O5276  1  0.99350980  0.43469631  0.32373424  1.0
  O  O5277  1  0.99350980  0.60136298  0.32373424  1.0
  O  O5278  1  0.99350980  0.76802965  0.32373424  1.0
  O  O5279  1  0.99350980  0.93469631  0.32373424  1.0
  O  O5280  1  0.04541204  0.15798762  0.26366691  1.0
  O  O5281  1  0.04541204  0.32465429  0.26366691  1.0
  O  O5282  1  0.04541204  0.49132095  0.26366691  1.0
  O  O5283  1  0.04541204  0.65798762  0.26366691  1.0
  O  O5284  1  0.04541204  0.82465429  0.26366691  1.0
  O  O5285  1  0.04541204  0.99132095  0.26366691  1.0
  O  O5286  1  0.13632113  0.15798762  0.26366691  1.0
  O  O5287  1  0.13632113  0.32465429  0.26366691  1.0
  O  O5288  1  0.13632113  0.49132095  0.26366691  1.0
  O  O5289  1  0.13632113  0.65798762  0.26366691  1.0
  O  O5290  1  0.13632113  0.82465429  0.26366691  1.0
  O  O5291  1  0.13632113  0.99132095  0.26366691  1.0
  O  O5292  1  0.22723022  0.15798762  0.26366691  1.0
  O  O5293  1  0.22723022  0.32465429  0.26366691  1.0
  O  O5294  1  0.22723022  0.49132095  0.26366691  1.0
  O  O5295  1  0.22723022  0.65798762  0.26366691  1.0
  O  O5296  1  0.22723022  0.82465429  0.26366691  1.0
  O  O5297  1  0.22723022  0.99132095  0.26366691  1.0
  O  O5298  1  0.31813931  0.15798762  0.26366691  1.0
  O  O5299  1  0.31813931  0.32465429  0.26366691  1.0
  O  O5300  1  0.31813931  0.49132095  0.26366691  1.0
  O  O5301  1  0.31813931  0.65798762  0.26366691  1.0
  O  O5302  1  0.31813931  0.82465429  0.26366691  1.0
  O  O5303  1  0.31813931  0.99132095  0.26366691  1.0
  O  O5304  1  0.40904840  0.15798762  0.26366691  1.0
  O  O5305  1  0.40904840  0.32465429  0.26366691  1.0
  O  O5306  1  0.40904840  0.49132095  0.26366691  1.0
  O  O5307  1  0.40904840  0.65798762  0.26366691  1.0
  O  O5308  1  0.40904840  0.82465429  0.26366691  1.0
  O  O5309  1  0.40904840  0.99132095  0.26366691  1.0
  O  O5310  1  0.49995749  0.15798762  0.26366691  1.0
  O  O5311  1  0.49995749  0.32465429  0.26366691  1.0
  O  O5312  1  0.49995749  0.49132095  0.26366691  1.0
  O  O5313  1  0.49995749  0.65798762  0.26366691  1.0
  O  O5314  1  0.49995749  0.82465429  0.26366691  1.0
  O  O5315  1  0.49995749  0.99132095  0.26366691  1.0
  O  O5316  1  0.59086659  0.15798762  0.26366691  1.0
  O  O5317  1  0.59086659  0.32465429  0.26366691  1.0
  O  O5318  1  0.59086659  0.49132095  0.26366691  1.0
  O  O5319  1  0.59086659  0.65798762  0.26366691  1.0
  O  O5320  1  0.59086659  0.82465429  0.26366691  1.0
  O  O5321  1  0.59086659  0.99132095  0.26366691  1.0
  O  O5322  1  0.68177568  0.15798762  0.26366691  1.0
  O  O5323  1  0.68177568  0.32465429  0.26366691  1.0
  O  O5324  1  0.68177568  0.49132095  0.26366691  1.0
  O  O5325  1  0.68177568  0.65798762  0.26366691  1.0
  O  O5326  1  0.68177568  0.82465429  0.26366691  1.0
  O  O5327  1  0.68177568  0.99132095  0.26366691  1.0
  O  O5328  1  0.77268477  0.15798762  0.26366691  1.0
  O  O5329  1  0.77268477  0.32465429  0.26366691  1.0
  O  O5330  1  0.77268477  0.49132095  0.26366691  1.0
  O  O5331  1  0.77268477  0.65798762  0.26366691  1.0
  O  O5332  1  0.77268477  0.82465429  0.26366691  1.0
  O  O5333  1  0.77268477  0.99132095  0.26366691  1.0
  O  O5334  1  0.86359386  0.15798762  0.26366691  1.0
  O  O5335  1  0.86359386  0.32465429  0.26366691  1.0
  O  O5336  1  0.86359386  0.49132095  0.26366691  1.0
  O  O5337  1  0.86359386  0.65798762  0.26366691  1.0
  O  O5338  1  0.86359386  0.82465429  0.26366691  1.0
  O  O5339  1  0.86359386  0.99132095  0.26366691  1.0
  O  O5340  1  0.95450295  0.15798762  0.26366691  1.0
  O  O5341  1  0.95450295  0.32465429  0.26366691  1.0
  O  O5342  1  0.95450295  0.49132095  0.26366691  1.0
  O  O5343  1  0.95450295  0.65798762  0.26366691  1.0
  O  O5344  1  0.95450295  0.82465429  0.26366691  1.0
  O  O5345  1  0.95450295  0.99132095  0.26366691  1.0
  O  O5346  1  0.09086659  0.14608286  0.33509549  1.0
  O  O5347  1  0.09086659  0.31274952  0.33509549  1.0
  O  O5348  1  0.09086659  0.47941619  0.33509549  1.0
  O  O5349  1  0.09086659  0.64608286  0.33509549  1.0
  O  O5350  1  0.09086659  0.81274952  0.33509549  1.0
  O  O5351  1  0.09086659  0.97941619  0.33509549  1.0
  O  O5352  1  0.18177568  0.14608286  0.33509549  1.0
  O  O5353  1  0.18177568  0.31274952  0.33509549  1.0
  O  O5354  1  0.18177568  0.47941619  0.33509549  1.0
  O  O5355  1  0.18177568  0.64608286  0.33509549  1.0
  O  O5356  1  0.18177568  0.81274952  0.33509549  1.0
  O  O5357  1  0.18177568  0.97941619  0.33509549  1.0
  O  O5358  1  0.27268477  0.14608286  0.33509549  1.0
  O  O5359  1  0.27268477  0.31274952  0.33509549  1.0
  O  O5360  1  0.27268477  0.47941619  0.33509549  1.0
  O  O5361  1  0.27268477  0.64608286  0.33509549  1.0
  O  O5362  1  0.27268477  0.81274952  0.33509549  1.0
  O  O5363  1  0.27268477  0.97941619  0.33509549  1.0
  O  O5364  1  0.36359386  0.14608286  0.33509549  1.0
  O  O5365  1  0.36359386  0.31274952  0.33509549  1.0
  O  O5366  1  0.36359386  0.47941619  0.33509549  1.0
  O  O5367  1  0.36359386  0.64608286  0.33509549  1.0
  O  O5368  1  0.36359386  0.81274952  0.33509549  1.0
  O  O5369  1  0.36359386  0.97941619  0.33509549  1.0
  O  O5370  1  0.45450295  0.14608286  0.33509549  1.0
  O  O5371  1  0.45450295  0.31274952  0.33509549  1.0
  O  O5372  1  0.45450295  0.47941619  0.33509549  1.0
  O  O5373  1  0.45450295  0.64608286  0.33509549  1.0
  O  O5374  1  0.45450295  0.81274952  0.33509549  1.0
  O  O5375  1  0.45450295  0.97941619  0.33509549  1.0
  O  O5376  1  0.54541204  0.14608286  0.33509549  1.0
  O  O5377  1  0.54541204  0.31274952  0.33509549  1.0
  O  O5378  1  0.54541204  0.47941619  0.33509549  1.0
  O  O5379  1  0.54541204  0.64608286  0.33509549  1.0
  O  O5380  1  0.54541204  0.81274952  0.33509549  1.0
  O  O5381  1  0.54541204  0.97941619  0.33509549  1.0
  O  O5382  1  0.63632113  0.14608286  0.33509549  1.0
  O  O5383  1  0.63632113  0.31274952  0.33509549  1.0
  O  O5384  1  0.63632113  0.47941619  0.33509549  1.0
  O  O5385  1  0.63632113  0.64608286  0.33509549  1.0
  O  O5386  1  0.63632113  0.81274952  0.33509549  1.0
  O  O5387  1  0.63632113  0.97941619  0.33509549  1.0
  O  O5388  1  0.72723022  0.14608286  0.33509549  1.0
  O  O5389  1  0.72723022  0.31274952  0.33509549  1.0
  O  O5390  1  0.72723022  0.47941619  0.33509549  1.0
  O  O5391  1  0.72723022  0.64608286  0.33509549  1.0
  O  O5392  1  0.72723022  0.81274952  0.33509549  1.0
  O  O5393  1  0.72723022  0.97941619  0.33509549  1.0
  O  O5394  1  0.81813931  0.14608286  0.33509549  1.0
  O  O5395  1  0.81813931  0.31274952  0.33509549  1.0
  O  O5396  1  0.81813931  0.47941619  0.33509549  1.0
  O  O5397  1  0.81813931  0.64608286  0.33509549  1.0
  O  O5398  1  0.81813931  0.81274952  0.33509549  1.0
  O  O5399  1  0.81813931  0.97941619  0.33509549  1.0
  O  O5400  1  0.90904840  0.14608286  0.33509549  1.0
  O  O5401  1  0.90904840  0.31274952  0.33509549  1.0
  O  O5402  1  0.90904840  0.47941619  0.33509549  1.0
  O  O5403  1  0.90904840  0.64608286  0.33509549  1.0
  O  O5404  1  0.90904840  0.81274952  0.33509549  1.0
  O  O5405  1  0.90904840  0.97941619  0.33509549  1.0
  O  O5406  1  0.99995749  0.14608286  0.33509549  1.0
  O  O5407  1  0.99995749  0.31274952  0.33509549  1.0
  O  O5408  1  0.99995749  0.47941619  0.33509549  1.0
  O  O5409  1  0.99995749  0.64608286  0.33509549  1.0
  O  O5410  1  0.99995749  0.81274952  0.33509549  1.0
  O  O5411  1  0.99995749  0.97941619  0.33509549  1.0
  O  O5412  1  0.01281294  0.08462229  0.28348115  1.0
  O  O5413  1  0.01281294  0.25128895  0.28348115  1.0
  O  O5414  1  0.01281294  0.41795562  0.28348115  1.0
  O  O5415  1  0.01281294  0.58462229  0.28348115  1.0
  O  O5416  1  0.01281294  0.75128895  0.28348115  1.0
  O  O5417  1  0.01281294  0.91795562  0.28348115  1.0
  O  O5418  1  0.10372203  0.08462229  0.28348115  1.0
  O  O5419  1  0.10372203  0.25128895  0.28348115  1.0
  O  O5420  1  0.10372203  0.41795562  0.28348115  1.0
  O  O5421  1  0.10372203  0.58462229  0.28348115  1.0
  O  O5422  1  0.10372203  0.75128895  0.28348115  1.0
  O  O5423  1  0.10372203  0.91795562  0.28348115  1.0
  O  O5424  1  0.19463112  0.08462229  0.28348115  1.0
  O  O5425  1  0.19463112  0.25128895  0.28348115  1.0
  O  O5426  1  0.19463112  0.41795562  0.28348115  1.0
  O  O5427  1  0.19463112  0.58462229  0.28348115  1.0
  O  O5428  1  0.19463112  0.75128895  0.28348115  1.0
  O  O5429  1  0.19463112  0.91795562  0.28348115  1.0
  O  O5430  1  0.28554021  0.08462229  0.28348115  1.0
  O  O5431  1  0.28554021  0.25128895  0.28348115  1.0
  O  O5432  1  0.28554021  0.41795562  0.28348115  1.0
  O  O5433  1  0.28554021  0.58462229  0.28348115  1.0
  O  O5434  1  0.28554021  0.75128895  0.28348115  1.0
  O  O5435  1  0.28554021  0.91795562  0.28348115  1.0
  O  O5436  1  0.37644930  0.08462229  0.28348115  1.0
  O  O5437  1  0.37644930  0.25128895  0.28348115  1.0
  O  O5438  1  0.37644930  0.41795562  0.28348115  1.0
  O  O5439  1  0.37644930  0.58462229  0.28348115  1.0
  O  O5440  1  0.37644930  0.75128895  0.28348115  1.0
  O  O5441  1  0.37644930  0.91795562  0.28348115  1.0
  O  O5442  1  0.46735840  0.08462229  0.28348115  1.0
  O  O5443  1  0.46735840  0.25128895  0.28348115  1.0
  O  O5444  1  0.46735840  0.41795562  0.28348115  1.0
  O  O5445  1  0.46735840  0.58462229  0.28348115  1.0
  O  O5446  1  0.46735840  0.75128895  0.28348115  1.0
  O  O5447  1  0.46735840  0.91795562  0.28348115  1.0
  O  O5448  1  0.55826749  0.08462229  0.28348115  1.0
  O  O5449  1  0.55826749  0.25128895  0.28348115  1.0
  O  O5450  1  0.55826749  0.41795562  0.28348115  1.0
  O  O5451  1  0.55826749  0.58462229  0.28348115  1.0
  O  O5452  1  0.55826749  0.75128895  0.28348115  1.0
  O  O5453  1  0.55826749  0.91795562  0.28348115  1.0
  O  O5454  1  0.64917658  0.08462229  0.28348115  1.0
  O  O5455  1  0.64917658  0.25128895  0.28348115  1.0
  O  O5456  1  0.64917658  0.41795562  0.28348115  1.0
  O  O5457  1  0.64917658  0.58462229  0.28348115  1.0
  O  O5458  1  0.64917658  0.75128895  0.28348115  1.0
  O  O5459  1  0.64917658  0.91795562  0.28348115  1.0
  O  O5460  1  0.74008567  0.08462229  0.28348115  1.0
  O  O5461  1  0.74008567  0.25128895  0.28348115  1.0
  O  O5462  1  0.74008567  0.41795562  0.28348115  1.0
  O  O5463  1  0.74008567  0.58462229  0.28348115  1.0
  O  O5464  1  0.74008567  0.75128895  0.28348115  1.0
  O  O5465  1  0.74008567  0.91795562  0.28348115  1.0
  O  O5466  1  0.83099476  0.08462229  0.28348115  1.0
  O  O5467  1  0.83099476  0.25128895  0.28348115  1.0
  O  O5468  1  0.83099476  0.41795562  0.28348115  1.0
  O  O5469  1  0.83099476  0.58462229  0.28348115  1.0
  O  O5470  1  0.83099476  0.75128895  0.28348115  1.0
  O  O5471  1  0.83099476  0.91795562  0.28348115  1.0
  O  O5472  1  0.92190385  0.08462229  0.28348115  1.0
  O  O5473  1  0.92190385  0.25128895  0.28348115  1.0
  O  O5474  1  0.92190385  0.41795562  0.28348115  1.0
  O  O5475  1  0.92190385  0.58462229  0.28348115  1.0
  O  O5476  1  0.92190385  0.75128895  0.28348115  1.0
  O  O5477  1  0.92190385  0.91795562  0.28348115  1.0
  O  O5478  1  0.05826749  0.07271752  0.35490972  1.0
  O  O5479  1  0.05826749  0.23938419  0.35490972  1.0
  O  O5480  1  0.05826749  0.40605086  0.35490972  1.0
  O  O5481  1  0.05826749  0.57271752  0.35490972  1.0
  O  O5482  1  0.05826749  0.73938419  0.35490972  1.0
  O  O5483  1  0.05826749  0.90605086  0.35490972  1.0
  O  O5484  1  0.14917658  0.07271752  0.35490972  1.0
  O  O5485  1  0.14917658  0.23938419  0.35490972  1.0
  O  O5486  1  0.14917658  0.40605086  0.35490972  1.0
  O  O5487  1  0.14917658  0.57271752  0.35490972  1.0
  O  O5488  1  0.14917658  0.73938419  0.35490972  1.0
  O  O5489  1  0.14917658  0.90605086  0.35490972  1.0
  O  O5490  1  0.24008567  0.07271752  0.35490972  1.0
  O  O5491  1  0.24008567  0.23938419  0.35490972  1.0
  O  O5492  1  0.24008567  0.40605086  0.35490972  1.0
  O  O5493  1  0.24008567  0.57271752  0.35490972  1.0
  O  O5494  1  0.24008567  0.73938419  0.35490972  1.0
  O  O5495  1  0.24008567  0.90605086  0.35490972  1.0
  O  O5496  1  0.33099476  0.07271752  0.35490972  1.0
  O  O5497  1  0.33099476  0.23938419  0.35490972  1.0
  O  O5498  1  0.33099476  0.40605086  0.35490972  1.0
  O  O5499  1  0.33099476  0.57271752  0.35490972  1.0
  O  O5500  1  0.33099476  0.73938419  0.35490972  1.0
  O  O5501  1  0.33099476  0.90605086  0.35490972  1.0
  O  O5502  1  0.42190385  0.07271752  0.35490972  1.0
  O  O5503  1  0.42190385  0.23938419  0.35490972  1.0
  O  O5504  1  0.42190385  0.40605086  0.35490972  1.0
  O  O5505  1  0.42190385  0.57271752  0.35490972  1.0
  O  O5506  1  0.42190385  0.73938419  0.35490972  1.0
  O  O5507  1  0.42190385  0.90605086  0.35490972  1.0
  O  O5508  1  0.51281294  0.07271752  0.35490972  1.0
  O  O5509  1  0.51281294  0.23938419  0.35490972  1.0
  O  O5510  1  0.51281294  0.40605086  0.35490972  1.0
  O  O5511  1  0.51281294  0.57271752  0.35490972  1.0
  O  O5512  1  0.51281294  0.73938419  0.35490972  1.0
  O  O5513  1  0.51281294  0.90605086  0.35490972  1.0
  O  O5514  1  0.60372203  0.07271752  0.35490972  1.0
  O  O5515  1  0.60372203  0.23938419  0.35490972  1.0
  O  O5516  1  0.60372203  0.40605086  0.35490972  1.0
  O  O5517  1  0.60372203  0.57271752  0.35490972  1.0
  O  O5518  1  0.60372203  0.73938419  0.35490972  1.0
  O  O5519  1  0.60372203  0.90605086  0.35490972  1.0
  O  O5520  1  0.69463112  0.07271752  0.35490972  1.0
  O  O5521  1  0.69463112  0.23938419  0.35490972  1.0
  O  O5522  1  0.69463112  0.40605086  0.35490972  1.0
  O  O5523  1  0.69463112  0.57271752  0.35490972  1.0
  O  O5524  1  0.69463112  0.73938419  0.35490972  1.0
  O  O5525  1  0.69463112  0.90605086  0.35490972  1.0
  O  O5526  1  0.78554021  0.07271752  0.35490972  1.0
  O  O5527  1  0.78554021  0.23938419  0.35490972  1.0
  O  O5528  1  0.78554021  0.40605086  0.35490972  1.0
  O  O5529  1  0.78554021  0.57271752  0.35490972  1.0
  O  O5530  1  0.78554021  0.73938419  0.35490972  1.0
  O  O5531  1  0.78554021  0.90605086  0.35490972  1.0
  O  O5532  1  0.87644930  0.07271752  0.35490972  1.0
  O  O5533  1  0.87644930  0.23938419  0.35490972  1.0
  O  O5534  1  0.87644930  0.40605086  0.35490972  1.0
  O  O5535  1  0.87644930  0.57271752  0.35490972  1.0
  O  O5536  1  0.87644930  0.73938419  0.35490972  1.0
  O  O5537  1  0.87644930  0.90605086  0.35490972  1.0
  O  O5538  1  0.96735840  0.07271752  0.35490972  1.0
  O  O5539  1  0.96735840  0.23938419  0.35490972  1.0
  O  O5540  1  0.96735840  0.40605086  0.35490972  1.0
  O  O5541  1  0.96735840  0.57271752  0.35490972  1.0
  O  O5542  1  0.96735840  0.73938419  0.35490972  1.0
  O  O5543  1  0.96735840  0.90605086  0.35490972  1.0
  O  O5544  1  0.01895556  0.12962455  0.29262070  1.0
  O  O5545  1  0.01895556  0.29629122  0.29262070  1.0
  O  O5546  1  0.01895556  0.46295788  0.29262070  1.0
  O  O5547  1  0.01895556  0.62962455  0.29262070  1.0
  O  O5548  1  0.01895556  0.79629122  0.29262070  1.0
  O  O5549  1  0.01895556  0.96295788  0.29262070  1.0
  O  O5550  1  0.10986465  0.12962455  0.29262070  1.0
  O  O5551  1  0.10986465  0.29629122  0.29262070  1.0
  O  O5552  1  0.10986465  0.46295788  0.29262070  1.0
  O  O5553  1  0.10986465  0.62962455  0.29262070  1.0
  O  O5554  1  0.10986465  0.79629122  0.29262070  1.0
  O  O5555  1  0.10986465  0.96295788  0.29262070  1.0
  O  O5556  1  0.20077374  0.12962455  0.29262070  1.0
  O  O5557  1  0.20077374  0.29629122  0.29262070  1.0
  O  O5558  1  0.20077374  0.46295788  0.29262070  1.0
  O  O5559  1  0.20077374  0.62962455  0.29262070  1.0
  O  O5560  1  0.20077374  0.79629122  0.29262070  1.0
  O  O5561  1  0.20077374  0.96295788  0.29262070  1.0
  O  O5562  1  0.29168283  0.12962455  0.29262070  1.0
  O  O5563  1  0.29168283  0.29629122  0.29262070  1.0
  O  O5564  1  0.29168283  0.46295788  0.29262070  1.0
  O  O5565  1  0.29168283  0.62962455  0.29262070  1.0
  O  O5566  1  0.29168283  0.79629122  0.29262070  1.0
  O  O5567  1  0.29168283  0.96295788  0.29262070  1.0
  O  O5568  1  0.38259192  0.12962455  0.29262070  1.0
  O  O5569  1  0.38259192  0.29629122  0.29262070  1.0
  O  O5570  1  0.38259192  0.46295788  0.29262070  1.0
  O  O5571  1  0.38259192  0.62962455  0.29262070  1.0
  O  O5572  1  0.38259192  0.79629122  0.29262070  1.0
  O  O5573  1  0.38259192  0.96295788  0.29262070  1.0
  O  O5574  1  0.47350101  0.12962455  0.29262070  1.0
  O  O5575  1  0.47350101  0.29629122  0.29262070  1.0
  O  O5576  1  0.47350101  0.46295788  0.29262070  1.0
  O  O5577  1  0.47350101  0.62962455  0.29262070  1.0
  O  O5578  1  0.47350101  0.79629122  0.29262070  1.0
  O  O5579  1  0.47350101  0.96295788  0.29262070  1.0
  O  O5580  1  0.56441010  0.12962455  0.29262070  1.0
  O  O5581  1  0.56441010  0.29629122  0.29262070  1.0
  O  O5582  1  0.56441010  0.46295788  0.29262070  1.0
  O  O5583  1  0.56441010  0.62962455  0.29262070  1.0
  O  O5584  1  0.56441010  0.79629122  0.29262070  1.0
  O  O5585  1  0.56441010  0.96295788  0.29262070  1.0
  O  O5586  1  0.65531920  0.12962455  0.29262070  1.0
  O  O5587  1  0.65531920  0.29629122  0.29262070  1.0
  O  O5588  1  0.65531920  0.46295788  0.29262070  1.0
  O  O5589  1  0.65531920  0.62962455  0.29262070  1.0
  O  O5590  1  0.65531920  0.79629122  0.29262070  1.0
  O  O5591  1  0.65531920  0.96295788  0.29262070  1.0
  O  O5592  1  0.74622829  0.12962455  0.29262070  1.0
  O  O5593  1  0.74622829  0.29629122  0.29262070  1.0
  O  O5594  1  0.74622829  0.46295788  0.29262070  1.0
  O  O5595  1  0.74622829  0.62962455  0.29262070  1.0
  O  O5596  1  0.74622829  0.79629122  0.29262070  1.0
  O  O5597  1  0.74622829  0.96295788  0.29262070  1.0
  O  O5598  1  0.83713738  0.12962455  0.29262070  1.0
  O  O5599  1  0.83713738  0.29629122  0.29262070  1.0
  O  O5600  1  0.83713738  0.46295788  0.29262070  1.0
  O  O5601  1  0.83713738  0.62962455  0.29262070  1.0
  O  O5602  1  0.83713738  0.79629122  0.29262070  1.0
  O  O5603  1  0.83713738  0.96295788  0.29262070  1.0
  O  O5604  1  0.92804647  0.12962455  0.29262070  1.0
  O  O5605  1  0.92804647  0.29629122  0.29262070  1.0
  O  O5606  1  0.92804647  0.46295788  0.29262070  1.0
  O  O5607  1  0.92804647  0.62962455  0.29262070  1.0
  O  O5608  1  0.92804647  0.79629122  0.29262070  1.0
  O  O5609  1  0.92804647  0.96295788  0.29262070  1.0
  O  O5610  1  0.06441010  0.14152931  0.22119213  1.0
  O  O5611  1  0.06441010  0.30819598  0.22119213  1.0
  O  O5612  1  0.06441010  0.47486265  0.22119213  1.0
  O  O5613  1  0.06441010  0.64152931  0.22119213  1.0
  O  O5614  1  0.06441010  0.80819598  0.22119213  1.0
  O  O5615  1  0.06441010  0.97486265  0.22119213  1.0
  O  O5616  1  0.15531920  0.14152931  0.22119213  1.0
  O  O5617  1  0.15531920  0.30819598  0.22119213  1.0
  O  O5618  1  0.15531920  0.47486265  0.22119213  1.0
  O  O5619  1  0.15531920  0.64152931  0.22119213  1.0
  O  O5620  1  0.15531920  0.80819598  0.22119213  1.0
  O  O5621  1  0.15531920  0.97486265  0.22119213  1.0
  O  O5622  1  0.24622829  0.14152931  0.22119213  1.0
  O  O5623  1  0.24622829  0.30819598  0.22119213  1.0
  O  O5624  1  0.24622829  0.47486265  0.22119213  1.0
  O  O5625  1  0.24622829  0.64152931  0.22119213  1.0
  O  O5626  1  0.24622829  0.80819598  0.22119213  1.0
  O  O5627  1  0.24622829  0.97486265  0.22119213  1.0
  O  O5628  1  0.33713738  0.14152931  0.22119213  1.0
  O  O5629  1  0.33713738  0.30819598  0.22119213  1.0
  O  O5630  1  0.33713738  0.47486265  0.22119213  1.0
  O  O5631  1  0.33713738  0.64152931  0.22119213  1.0
  O  O5632  1  0.33713738  0.80819598  0.22119213  1.0
  O  O5633  1  0.33713738  0.97486265  0.22119213  1.0
  O  O5634  1  0.42804647  0.14152931  0.22119213  1.0
  O  O5635  1  0.42804647  0.30819598  0.22119213  1.0
  O  O5636  1  0.42804647  0.47486265  0.22119213  1.0
  O  O5637  1  0.42804647  0.64152931  0.22119213  1.0
  O  O5638  1  0.42804647  0.80819598  0.22119213  1.0
  O  O5639  1  0.42804647  0.97486265  0.22119213  1.0
  O  O5640  1  0.51895556  0.14152931  0.22119213  1.0
  O  O5641  1  0.51895556  0.30819598  0.22119213  1.0
  O  O5642  1  0.51895556  0.47486265  0.22119213  1.0
  O  O5643  1  0.51895556  0.64152931  0.22119213  1.0
  O  O5644  1  0.51895556  0.80819598  0.22119213  1.0
  O  O5645  1  0.51895556  0.97486265  0.22119213  1.0
  O  O5646  1  0.60986465  0.14152931  0.22119213  1.0
  O  O5647  1  0.60986465  0.30819598  0.22119213  1.0
  O  O5648  1  0.60986465  0.47486265  0.22119213  1.0
  O  O5649  1  0.60986465  0.64152931  0.22119213  1.0
  O  O5650  1  0.60986465  0.80819598  0.22119213  1.0
  O  O5651  1  0.60986465  0.97486265  0.22119213  1.0
  O  O5652  1  0.70077374  0.14152931  0.22119213  1.0
  O  O5653  1  0.70077374  0.30819598  0.22119213  1.0
  O  O5654  1  0.70077374  0.47486265  0.22119213  1.0
  O  O5655  1  0.70077374  0.64152931  0.22119213  1.0
  O  O5656  1  0.70077374  0.80819598  0.22119213  1.0
  O  O5657  1  0.70077374  0.97486265  0.22119213  1.0
  O  O5658  1  0.79168283  0.14152931  0.22119213  1.0
  O  O5659  1  0.79168283  0.30819598  0.22119213  1.0
  O  O5660  1  0.79168283  0.47486265  0.22119213  1.0
  O  O5661  1  0.79168283  0.64152931  0.22119213  1.0
  O  O5662  1  0.79168283  0.80819598  0.22119213  1.0
  O  O5663  1  0.79168283  0.97486265  0.22119213  1.0
  O  O5664  1  0.88259192  0.14152931  0.22119213  1.0
  O  O5665  1  0.88259192  0.30819598  0.22119213  1.0
  O  O5666  1  0.88259192  0.47486265  0.22119213  1.0
  O  O5667  1  0.88259192  0.64152931  0.22119213  1.0
  O  O5668  1  0.88259192  0.80819598  0.22119213  1.0
  O  O5669  1  0.88259192  0.97486265  0.22119213  1.0
  O  O5670  1  0.97350101  0.14152931  0.22119213  1.0
  O  O5671  1  0.97350101  0.30819598  0.22119213  1.0
  O  O5672  1  0.97350101  0.47486265  0.22119213  1.0
  O  O5673  1  0.97350101  0.64152931  0.22119213  1.0
  O  O5674  1  0.97350101  0.80819598  0.22119213  1.0
  O  O5675  1  0.97350101  0.97486265  0.22119213  1.0
  O  O5676  1  0.06505624  0.12899740  0.29249238  1.0
  O  O5677  1  0.06505624  0.29566407  0.29249238  1.0
  O  O5678  1  0.06505624  0.46233074  0.29249238  1.0
  O  O5679  1  0.06505624  0.62899740  0.29249238  1.0
  O  O5680  1  0.06505624  0.79566407  0.29249238  1.0
  O  O5681  1  0.06505624  0.96233074  0.29249238  1.0
  O  O5682  1  0.15596534  0.12899740  0.29249238  1.0
  O  O5683  1  0.15596534  0.29566407  0.29249238  1.0
  O  O5684  1  0.15596534  0.46233074  0.29249238  1.0
  O  O5685  1  0.15596534  0.62899740  0.29249238  1.0
  O  O5686  1  0.15596534  0.79566407  0.29249238  1.0
  O  O5687  1  0.15596534  0.96233074  0.29249238  1.0
  O  O5688  1  0.24687443  0.12899740  0.29249238  1.0
  O  O5689  1  0.24687443  0.29566407  0.29249238  1.0
  O  O5690  1  0.24687443  0.46233074  0.29249238  1.0
  O  O5691  1  0.24687443  0.62899740  0.29249238  1.0
  O  O5692  1  0.24687443  0.79566407  0.29249238  1.0
  O  O5693  1  0.24687443  0.96233074  0.29249238  1.0
  O  O5694  1  0.33778352  0.12899740  0.29249238  1.0
  O  O5695  1  0.33778352  0.29566407  0.29249238  1.0
  O  O5696  1  0.33778352  0.46233074  0.29249238  1.0
  O  O5697  1  0.33778352  0.62899740  0.29249238  1.0
  O  O5698  1  0.33778352  0.79566407  0.29249238  1.0
  O  O5699  1  0.33778352  0.96233074  0.29249238  1.0
  O  O5700  1  0.42869261  0.12899740  0.29249238  1.0
  O  O5701  1  0.42869261  0.29566407  0.29249238  1.0
  O  O5702  1  0.42869261  0.46233074  0.29249238  1.0
  O  O5703  1  0.42869261  0.62899740  0.29249238  1.0
  O  O5704  1  0.42869261  0.79566407  0.29249238  1.0
  O  O5705  1  0.42869261  0.96233074  0.29249238  1.0
  O  O5706  1  0.51960170  0.12899740  0.29249238  1.0
  O  O5707  1  0.51960170  0.29566407  0.29249238  1.0
  O  O5708  1  0.51960170  0.46233074  0.29249238  1.0
  O  O5709  1  0.51960170  0.62899740  0.29249238  1.0
  O  O5710  1  0.51960170  0.79566407  0.29249238  1.0
  O  O5711  1  0.51960170  0.96233074  0.29249238  1.0
  O  O5712  1  0.61051079  0.12899740  0.29249238  1.0
  O  O5713  1  0.61051079  0.29566407  0.29249238  1.0
  O  O5714  1  0.61051079  0.46233074  0.29249238  1.0
  O  O5715  1  0.61051079  0.62899740  0.29249238  1.0
  O  O5716  1  0.61051079  0.79566407  0.29249238  1.0
  O  O5717  1  0.61051079  0.96233074  0.29249238  1.0
  O  O5718  1  0.70141988  0.12899740  0.29249238  1.0
  O  O5719  1  0.70141988  0.29566407  0.29249238  1.0
  O  O5720  1  0.70141988  0.46233074  0.29249238  1.0
  O  O5721  1  0.70141988  0.62899740  0.29249238  1.0
  O  O5722  1  0.70141988  0.79566407  0.29249238  1.0
  O  O5723  1  0.70141988  0.96233074  0.29249238  1.0
  O  O5724  1  0.79232897  0.12899740  0.29249238  1.0
  O  O5725  1  0.79232897  0.29566407  0.29249238  1.0
  O  O5726  1  0.79232897  0.46233074  0.29249238  1.0
  O  O5727  1  0.79232897  0.62899740  0.29249238  1.0
  O  O5728  1  0.79232897  0.79566407  0.29249238  1.0
  O  O5729  1  0.79232897  0.96233074  0.29249238  1.0
  O  O5730  1  0.88323806  0.12899740  0.29249238  1.0
  O  O5731  1  0.88323806  0.29566407  0.29249238  1.0
  O  O5732  1  0.88323806  0.46233074  0.29249238  1.0
  O  O5733  1  0.88323806  0.62899740  0.29249238  1.0
  O  O5734  1  0.88323806  0.79566407  0.29249238  1.0
  O  O5735  1  0.88323806  0.96233074  0.29249238  1.0
  O  O5736  1  0.97414715  0.12899740  0.29249238  1.0
  O  O5737  1  0.97414715  0.29566407  0.29249238  1.0
  O  O5738  1  0.97414715  0.46233074  0.29249238  1.0
  O  O5739  1  0.97414715  0.62899740  0.29249238  1.0
  O  O5740  1  0.97414715  0.79566407  0.29249238  1.0
  O  O5741  1  0.97414715  0.96233074  0.29249238  1.0
  O  O5742  1  0.01960170  0.14090216  0.22106381  1.0
  O  O5743  1  0.01960170  0.30756883  0.22106381  1.0
  O  O5744  1  0.01960170  0.47423550  0.22106381  1.0
  O  O5745  1  0.01960170  0.64090216  0.22106381  1.0
  O  O5746  1  0.01960170  0.80756883  0.22106381  1.0
  O  O5747  1  0.01960170  0.97423550  0.22106381  1.0
  O  O5748  1  0.11051079  0.14090216  0.22106381  1.0
  O  O5749  1  0.11051079  0.30756883  0.22106381  1.0
  O  O5750  1  0.11051079  0.47423550  0.22106381  1.0
  O  O5751  1  0.11051079  0.64090216  0.22106381  1.0
  O  O5752  1  0.11051079  0.80756883  0.22106381  1.0
  O  O5753  1  0.11051079  0.97423550  0.22106381  1.0
  O  O5754  1  0.20141988  0.14090216  0.22106381  1.0
  O  O5755  1  0.20141988  0.30756883  0.22106381  1.0
  O  O5756  1  0.20141988  0.47423550  0.22106381  1.0
  O  O5757  1  0.20141988  0.64090216  0.22106381  1.0
  O  O5758  1  0.20141988  0.80756883  0.22106381  1.0
  O  O5759  1  0.20141988  0.97423550  0.22106381  1.0
  O  O5760  1  0.29232897  0.14090216  0.22106381  1.0
  O  O5761  1  0.29232897  0.30756883  0.22106381  1.0
  O  O5762  1  0.29232897  0.47423550  0.22106381  1.0
  O  O5763  1  0.29232897  0.64090216  0.22106381  1.0
  O  O5764  1  0.29232897  0.80756883  0.22106381  1.0
  O  O5765  1  0.29232897  0.97423550  0.22106381  1.0
  O  O5766  1  0.38323806  0.14090216  0.22106381  1.0
  O  O5767  1  0.38323806  0.30756883  0.22106381  1.0
  O  O5768  1  0.38323806  0.47423550  0.22106381  1.0
  O  O5769  1  0.38323806  0.64090216  0.22106381  1.0
  O  O5770  1  0.38323806  0.80756883  0.22106381  1.0
  O  O5771  1  0.38323806  0.97423550  0.22106381  1.0
  O  O5772  1  0.47414715  0.14090216  0.22106381  1.0
  O  O5773  1  0.47414715  0.30756883  0.22106381  1.0
  O  O5774  1  0.47414715  0.47423550  0.22106381  1.0
  O  O5775  1  0.47414715  0.64090216  0.22106381  1.0
  O  O5776  1  0.47414715  0.80756883  0.22106381  1.0
  O  O5777  1  0.47414715  0.97423550  0.22106381  1.0
  O  O5778  1  0.56505624  0.14090216  0.22106381  1.0
  O  O5779  1  0.56505624  0.30756883  0.22106381  1.0
  O  O5780  1  0.56505624  0.47423550  0.22106381  1.0
  O  O5781  1  0.56505624  0.64090216  0.22106381  1.0
  O  O5782  1  0.56505624  0.80756883  0.22106381  1.0
  O  O5783  1  0.56505624  0.97423550  0.22106381  1.0
  O  O5784  1  0.65596534  0.14090216  0.22106381  1.0
  O  O5785  1  0.65596534  0.30756883  0.22106381  1.0
  O  O5786  1  0.65596534  0.47423550  0.22106381  1.0
  O  O5787  1  0.65596534  0.64090216  0.22106381  1.0
  O  O5788  1  0.65596534  0.80756883  0.22106381  1.0
  O  O5789  1  0.65596534  0.97423550  0.22106381  1.0
  O  O5790  1  0.74687443  0.14090216  0.22106381  1.0
  O  O5791  1  0.74687443  0.30756883  0.22106381  1.0
  O  O5792  1  0.74687443  0.47423550  0.22106381  1.0
  O  O5793  1  0.74687443  0.64090216  0.22106381  1.0
  O  O5794  1  0.74687443  0.80756883  0.22106381  1.0
  O  O5795  1  0.74687443  0.97423550  0.22106381  1.0
  O  O5796  1  0.83778352  0.14090216  0.22106381  1.0
  O  O5797  1  0.83778352  0.30756883  0.22106381  1.0
  O  O5798  1  0.83778352  0.47423550  0.22106381  1.0
  O  O5799  1  0.83778352  0.64090216  0.22106381  1.0
  O  O5800  1  0.83778352  0.80756883  0.22106381  1.0
  O  O5801  1  0.83778352  0.97423550  0.22106381  1.0
  O  O5802  1  0.92869261  0.14090216  0.22106381  1.0
  O  O5803  1  0.92869261  0.30756883  0.22106381  1.0
  O  O5804  1  0.92869261  0.47423550  0.22106381  1.0
  O  O5805  1  0.92869261  0.64090216  0.22106381  1.0
  O  O5806  1  0.92869261  0.80756883  0.22106381  1.0
  O  O5807  1  0.92869261  0.97423550  0.22106381  1.0
  O  O5808  1  0.05890792  0.08399866  0.28335186  1.0
  O  O5809  1  0.05890792  0.25066533  0.28335186  1.0
  O  O5810  1  0.05890792  0.41733200  0.28335186  1.0
  O  O5811  1  0.05890792  0.58399866  0.28335186  1.0
  O  O5812  1  0.05890792  0.75066533  0.28335186  1.0
  O  O5813  1  0.05890792  0.91733200  0.28335186  1.0
  O  O5814  1  0.14981701  0.08399866  0.28335186  1.0
  O  O5815  1  0.14981701  0.25066533  0.28335186  1.0
  O  O5816  1  0.14981701  0.41733200  0.28335186  1.0
  O  O5817  1  0.14981701  0.58399866  0.28335186  1.0
  O  O5818  1  0.14981701  0.75066533  0.28335186  1.0
  O  O5819  1  0.14981701  0.91733200  0.28335186  1.0
  O  O5820  1  0.24072610  0.08399866  0.28335186  1.0
  O  O5821  1  0.24072610  0.25066533  0.28335186  1.0
  O  O5822  1  0.24072610  0.41733200  0.28335186  1.0
  O  O5823  1  0.24072610  0.58399866  0.28335186  1.0
  O  O5824  1  0.24072610  0.75066533  0.28335186  1.0
  O  O5825  1  0.24072610  0.91733200  0.28335186  1.0
  O  O5826  1  0.33163519  0.08399866  0.28335186  1.0
  O  O5827  1  0.33163519  0.25066533  0.28335186  1.0
  O  O5828  1  0.33163519  0.41733200  0.28335186  1.0
  O  O5829  1  0.33163519  0.58399866  0.28335186  1.0
  O  O5830  1  0.33163519  0.75066533  0.28335186  1.0
  O  O5831  1  0.33163519  0.91733200  0.28335186  1.0
  O  O5832  1  0.42254428  0.08399866  0.28335186  1.0
  O  O5833  1  0.42254428  0.25066533  0.28335186  1.0
  O  O5834  1  0.42254428  0.41733200  0.28335186  1.0
  O  O5835  1  0.42254428  0.58399866  0.28335186  1.0
  O  O5836  1  0.42254428  0.75066533  0.28335186  1.0
  O  O5837  1  0.42254428  0.91733200  0.28335186  1.0
  O  O5838  1  0.51345337  0.08399866  0.28335186  1.0
  O  O5839  1  0.51345338  0.25066533  0.28335186  1.0
  O  O5840  1  0.51345337  0.41733200  0.28335186  1.0
  O  O5841  1  0.51345337  0.58399866  0.28335186  1.0
  O  O5842  1  0.51345337  0.75066533  0.28335186  1.0
  O  O5843  1  0.51345337  0.91733200  0.28335186  1.0
  O  O5844  1  0.60436247  0.08399866  0.28335186  1.0
  O  O5845  1  0.60436247  0.25066533  0.28335186  1.0
  O  O5846  1  0.60436247  0.41733200  0.28335186  1.0
  O  O5847  1  0.60436247  0.58399866  0.28335186  1.0
  O  O5848  1  0.60436247  0.75066533  0.28335186  1.0
  O  O5849  1  0.60436247  0.91733200  0.28335186  1.0
  O  O5850  1  0.69527156  0.08399866  0.28335186  1.0
  O  O5851  1  0.69527156  0.25066533  0.28335186  1.0
  O  O5852  1  0.69527156  0.41733200  0.28335186  1.0
  O  O5853  1  0.69527156  0.58399866  0.28335186  1.0
  O  O5854  1  0.69527156  0.75066533  0.28335186  1.0
  O  O5855  1  0.69527156  0.91733200  0.28335186  1.0
  O  O5856  1  0.78618065  0.08399866  0.28335186  1.0
  O  O5857  1  0.78618065  0.25066533  0.28335186  1.0
  O  O5858  1  0.78618065  0.41733200  0.28335186  1.0
  O  O5859  1  0.78618065  0.58399866  0.28335186  1.0
  O  O5860  1  0.78618065  0.75066533  0.28335186  1.0
  O  O5861  1  0.78618065  0.91733200  0.28335186  1.0
  O  O5862  1  0.87708974  0.08399866  0.28335186  1.0
  O  O5863  1  0.87708974  0.25066533  0.28335186  1.0
  O  O5864  1  0.87708974  0.41733200  0.28335186  1.0
  O  O5865  1  0.87708974  0.58399866  0.28335186  1.0
  O  O5866  1  0.87708974  0.75066533  0.28335186  1.0
  O  O5867  1  0.87708974  0.91733200  0.28335186  1.0
  O  O5868  1  0.96799883  0.08399866  0.28335186  1.0
  O  O5869  1  0.96799883  0.25066533  0.28335186  1.0
  O  O5870  1  0.96799883  0.41733200  0.28335186  1.0
  O  O5871  1  0.96799883  0.58399866  0.28335186  1.0
  O  O5872  1  0.96799883  0.75066533  0.28335186  1.0
  O  O5873  1  0.96799883  0.91733200  0.28335186  1.0
  O  O5874  1  0.01345337  0.07209390  0.35478043  1.0
  O  O5875  1  0.01345337  0.23876057  0.35478043  1.0
  O  O5876  1  0.01345337  0.40542724  0.35478043  1.0
  O  O5877  1  0.01345337  0.57209390  0.35478043  1.0
  O  O5878  1  0.01345338  0.73876057  0.35478043  1.0
  O  O5879  1  0.01345337  0.90542724  0.35478043  1.0
  O  O5880  1  0.10436247  0.07209390  0.35478043  1.0
  O  O5881  1  0.10436247  0.23876057  0.35478043  1.0
  O  O5882  1  0.10436247  0.40542724  0.35478043  1.0
  O  O5883  1  0.10436247  0.57209390  0.35478043  1.0
  O  O5884  1  0.10436247  0.73876057  0.35478043  1.0
  O  O5885  1  0.10436247  0.90542724  0.35478043  1.0
  O  O5886  1  0.19527156  0.07209390  0.35478043  1.0
  O  O5887  1  0.19527156  0.23876057  0.35478043  1.0
  O  O5888  1  0.19527156  0.40542724  0.35478043  1.0
  O  O5889  1  0.19527156  0.57209390  0.35478043  1.0
  O  O5890  1  0.19527156  0.73876057  0.35478043  1.0
  O  O5891  1  0.19527156  0.90542724  0.35478043  1.0
  O  O5892  1  0.28618065  0.07209390  0.35478043  1.0
  O  O5893  1  0.28618065  0.23876057  0.35478043  1.0
  O  O5894  1  0.28618065  0.40542724  0.35478043  1.0
  O  O5895  1  0.28618065  0.57209390  0.35478043  1.0
  O  O5896  1  0.28618065  0.73876057  0.35478043  1.0
  O  O5897  1  0.28618065  0.90542724  0.35478043  1.0
  O  O5898  1  0.37708974  0.07209390  0.35478043  1.0
  O  O5899  1  0.37708974  0.23876057  0.35478043  1.0
  O  O5900  1  0.37708974  0.40542724  0.35478043  1.0
  O  O5901  1  0.37708974  0.57209390  0.35478043  1.0
  O  O5902  1  0.37708974  0.73876057  0.35478043  1.0
  O  O5903  1  0.37708974  0.90542724  0.35478043  1.0
  O  O5904  1  0.46799883  0.07209390  0.35478043  1.0
  O  O5905  1  0.46799883  0.23876057  0.35478043  1.0
  O  O5906  1  0.46799883  0.40542724  0.35478043  1.0
  O  O5907  1  0.46799883  0.57209390  0.35478043  1.0
  O  O5908  1  0.46799883  0.73876057  0.35478043  1.0
  O  O5909  1  0.46799883  0.90542724  0.35478043  1.0
  O  O5910  1  0.55890792  0.07209390  0.35478043  1.0
  O  O5911  1  0.55890792  0.23876057  0.35478043  1.0
  O  O5912  1  0.55890792  0.40542724  0.35478043  1.0
  O  O5913  1  0.55890792  0.57209390  0.35478043  1.0
  O  O5914  1  0.55890792  0.73876057  0.35478043  1.0
  O  O5915  1  0.55890792  0.90542724  0.35478043  1.0
  O  O5916  1  0.64981701  0.07209390  0.35478043  1.0
  O  O5917  1  0.64981701  0.23876057  0.35478043  1.0
  O  O5918  1  0.64981701  0.40542724  0.35478043  1.0
  O  O5919  1  0.64981701  0.57209390  0.35478043  1.0
  O  O5920  1  0.64981701  0.73876057  0.35478043  1.0
  O  O5921  1  0.64981701  0.90542724  0.35478043  1.0
  O  O5922  1  0.74072610  0.07209390  0.35478043  1.0
  O  O5923  1  0.74072610  0.23876057  0.35478043  1.0
  O  O5924  1  0.74072610  0.40542724  0.35478043  1.0
  O  O5925  1  0.74072610  0.57209390  0.35478043  1.0
  O  O5926  1  0.74072610  0.73876057  0.35478043  1.0
  O  O5927  1  0.74072610  0.90542724  0.35478043  1.0
  O  O5928  1  0.83163519  0.07209390  0.35478043  1.0
  O  O5929  1  0.83163519  0.23876057  0.35478043  1.0
  O  O5930  1  0.83163519  0.40542724  0.35478043  1.0
  O  O5931  1  0.83163519  0.57209390  0.35478043  1.0
  O  O5932  1  0.83163519  0.73876057  0.35478043  1.0
  O  O5933  1  0.83163519  0.90542724  0.35478043  1.0
  O  O5934  1  0.92254428  0.07209390  0.35478043  1.0
  O  O5935  1  0.92254428  0.23876057  0.35478043  1.0
  O  O5936  1  0.92254428  0.40542724  0.35478043  1.0
  O  O5937  1  0.92254428  0.57209390  0.35478043  1.0
  O  O5938  1  0.92254428  0.73876057  0.35478043  1.0
  O  O5939  1  0.92254428  0.90542724  0.35478043  1.0
  O  O5940  1  0.05045578  0.03722009  0.27258152  1.0
  O  O5941  1  0.05045578  0.20388676  0.27258152  1.0
  O  O5942  1  0.05045578  0.37055342  0.27258152  1.0
  O  O5943  1  0.05045578  0.53722009  0.27258152  1.0
  O  O5944  1  0.05045578  0.70388676  0.27258152  1.0
  O  O5945  1  0.05045578  0.87055342  0.27258152  1.0
  O  O5946  1  0.14136487  0.03722009  0.27258152  1.0
  O  O5947  1  0.14136487  0.20388676  0.27258152  1.0
  O  O5948  1  0.14136487  0.37055342  0.27258152  1.0
  O  O5949  1  0.14136487  0.53722009  0.27258152  1.0
  O  O5950  1  0.14136487  0.70388676  0.27258152  1.0
  O  O5951  1  0.14136487  0.87055342  0.27258152  1.0
  O  O5952  1  0.23227396  0.03722009  0.27258152  1.0
  O  O5953  1  0.23227396  0.20388676  0.27258152  1.0
  O  O5954  1  0.23227396  0.37055342  0.27258152  1.0
  O  O5955  1  0.23227396  0.53722009  0.27258152  1.0
  O  O5956  1  0.23227396  0.70388676  0.27258152  1.0
  O  O5957  1  0.23227396  0.87055342  0.27258152  1.0
  O  O5958  1  0.32318306  0.03722009  0.27258152  1.0
  O  O5959  1  0.32318306  0.20388676  0.27258152  1.0
  O  O5960  1  0.32318306  0.37055342  0.27258152  1.0
  O  O5961  1  0.32318306  0.53722009  0.27258152  1.0
  O  O5962  1  0.32318306  0.70388676  0.27258152  1.0
  O  O5963  1  0.32318306  0.87055342  0.27258152  1.0
  O  O5964  1  0.41409215  0.03722009  0.27258152  1.0
  O  O5965  1  0.41409215  0.20388676  0.27258152  1.0
  O  O5966  1  0.41409215  0.37055342  0.27258152  1.0
  O  O5967  1  0.41409215  0.53722009  0.27258152  1.0
  O  O5968  1  0.41409215  0.70388676  0.27258152  1.0
  O  O5969  1  0.41409215  0.87055342  0.27258152  1.0
  O  O5970  1  0.50500124  0.03722009  0.27258152  1.0
  O  O5971  1  0.50500124  0.20388676  0.27258152  1.0
  O  O5972  1  0.50500124  0.37055342  0.27258152  1.0
  O  O5973  1  0.50500124  0.53722009  0.27258152  1.0
  O  O5974  1  0.50500124  0.70388676  0.27258152  1.0
  O  O5975  1  0.50500124  0.87055342  0.27258152  1.0
  O  O5976  1  0.59591033  0.03722009  0.27258152  1.0
  O  O5977  1  0.59591033  0.20388676  0.27258152  1.0
  O  O5978  1  0.59591033  0.37055342  0.27258152  1.0
  O  O5979  1  0.59591033  0.53722009  0.27258152  1.0
  O  O5980  1  0.59591033  0.70388676  0.27258152  1.0
  O  O5981  1  0.59591033  0.87055342  0.27258152  1.0
  O  O5982  1  0.68681942  0.03722009  0.27258152  1.0
  O  O5983  1  0.68681942  0.20388676  0.27258152  1.0
  O  O5984  1  0.68681942  0.37055342  0.27258152  1.0
  O  O5985  1  0.68681942  0.53722009  0.27258152  1.0
  O  O5986  1  0.68681942  0.70388676  0.27258152  1.0
  O  O5987  1  0.68681942  0.87055342  0.27258152  1.0
  O  O5988  1  0.77772851  0.03722009  0.27258152  1.0
  O  O5989  1  0.77772851  0.20388676  0.27258152  1.0
  O  O5990  1  0.77772851  0.37055342  0.27258152  1.0
  O  O5991  1  0.77772851  0.53722009  0.27258152  1.0
  O  O5992  1  0.77772851  0.70388676  0.27258152  1.0
  O  O5993  1  0.77772851  0.87055342  0.27258152  1.0
  O  O5994  1  0.86863760  0.03722009  0.27258152  1.0
  O  O5995  1  0.86863760  0.20388676  0.27258152  1.0
  O  O5996  1  0.86863760  0.37055342  0.27258152  1.0
  O  O5997  1  0.86863760  0.53722009  0.27258152  1.0
  O  O5998  1  0.86863760  0.70388676  0.27258152  1.0
  O  O5999  1  0.86863760  0.87055342  0.27258152  1.0
  O  O6000  1  0.95954669  0.03722009  0.27258152  1.0
  O  O6001  1  0.95954669  0.20388676  0.27258152  1.0
  O  O6002  1  0.95954669  0.37055342  0.27258152  1.0
  O  O6003  1  0.95954669  0.53722009  0.27258152  1.0
  O  O6004  1  0.95954669  0.70388676  0.27258152  1.0
  O  O6005  1  0.95954669  0.87055342  0.27258152  1.0
  O  O6006  1  0.00500124  0.02531533  0.34401009  1.0
  O  O6007  1  0.00500124  0.19198200  0.34401009  1.0
  O  O6008  1  0.00500124  0.35864866  0.34401009  1.0
  O  O6009  1  0.00500124  0.52531533  0.34401009  1.0
  O  O6010  1  0.00500124  0.69198200  0.34401009  1.0
  O  O6011  1  0.00500124  0.85864866  0.34401009  1.0
  O  O6012  1  0.09591033  0.02531533  0.34401009  1.0
  O  O6013  1  0.09591033  0.19198200  0.34401009  1.0
  O  O6014  1  0.09591033  0.35864866  0.34401009  1.0
  O  O6015  1  0.09591033  0.52531533  0.34401009  1.0
  O  O6016  1  0.09591033  0.69198200  0.34401009  1.0
  O  O6017  1  0.09591033  0.85864866  0.34401009  1.0
  O  O6018  1  0.18681942  0.02531533  0.34401009  1.0
  O  O6019  1  0.18681942  0.19198200  0.34401009  1.0
  O  O6020  1  0.18681942  0.35864866  0.34401009  1.0
  O  O6021  1  0.18681942  0.52531533  0.34401009  1.0
  O  O6022  1  0.18681942  0.69198200  0.34401009  1.0
  O  O6023  1  0.18681942  0.85864866  0.34401009  1.0
  O  O6024  1  0.27772851  0.02531533  0.34401009  1.0
  O  O6025  1  0.27772851  0.19198200  0.34401009  1.0
  O  O6026  1  0.27772851  0.35864866  0.34401009  1.0
  O  O6027  1  0.27772851  0.52531533  0.34401009  1.0
  O  O6028  1  0.27772851  0.69198200  0.34401009  1.0
  O  O6029  1  0.27772851  0.85864866  0.34401009  1.0
  O  O6030  1  0.36863760  0.02531533  0.34401009  1.0
  O  O6031  1  0.36863760  0.19198200  0.34401009  1.0
  O  O6032  1  0.36863760  0.35864866  0.34401009  1.0
  O  O6033  1  0.36863760  0.52531533  0.34401009  1.0
  O  O6034  1  0.36863760  0.69198200  0.34401009  1.0
  O  O6035  1  0.36863760  0.85864866  0.34401009  1.0
  O  O6036  1  0.45954669  0.02531533  0.34401009  1.0
  O  O6037  1  0.45954669  0.19198200  0.34401009  1.0
  O  O6038  1  0.45954669  0.35864866  0.34401009  1.0
  O  O6039  1  0.45954669  0.52531533  0.34401009  1.0
  O  O6040  1  0.45954669  0.69198200  0.34401009  1.0
  O  O6041  1  0.45954669  0.85864866  0.34401009  1.0
  O  O6042  1  0.55045578  0.02531533  0.34401009  1.0
  O  O6043  1  0.55045578  0.19198200  0.34401009  1.0
  O  O6044  1  0.55045578  0.35864866  0.34401009  1.0
  O  O6045  1  0.55045578  0.52531533  0.34401009  1.0
  O  O6046  1  0.55045578  0.69198200  0.34401009  1.0
  O  O6047  1  0.55045578  0.85864866  0.34401009  1.0
  O  O6048  1  0.64136487  0.02531533  0.34401009  1.0
  O  O6049  1  0.64136487  0.19198200  0.34401009  1.0
  O  O6050  1  0.64136487  0.35864866  0.34401009  1.0
  O  O6051  1  0.64136487  0.52531533  0.34401009  1.0
  O  O6052  1  0.64136487  0.69198200  0.34401009  1.0
  O  O6053  1  0.64136487  0.85864866  0.34401009  1.0
  O  O6054  1  0.73227396  0.02531533  0.34401009  1.0
  O  O6055  1  0.73227396  0.19198200  0.34401009  1.0
  O  O6056  1  0.73227397  0.35864866  0.34401009  1.0
  O  O6057  1  0.73227397  0.52531533  0.34401009  1.0
  O  O6058  1  0.73227396  0.69198200  0.34401009  1.0
  O  O6059  1  0.73227396  0.85864866  0.34401009  1.0
  O  O6060  1  0.82318306  0.02531533  0.34401009  1.0
  O  O6061  1  0.82318306  0.19198200  0.34401009  1.0
  O  O6062  1  0.82318306  0.35864866  0.34401009  1.0
  O  O6063  1  0.82318306  0.52531533  0.34401009  1.0
  O  O6064  1  0.82318306  0.69198200  0.34401009  1.0
  O  O6065  1  0.82318306  0.85864866  0.34401009  1.0
  O  O6066  1  0.91409215  0.02531533  0.34401009  1.0
  O  O6067  1  0.91409215  0.19198200  0.34401009  1.0
  O  O6068  1  0.91409215  0.35864866  0.34401009  1.0
  O  O6069  1  0.91409215  0.52531533  0.34401009  1.0
  O  O6070  1  0.91409215  0.69198200  0.34401009  1.0
  O  O6071  1  0.91409215  0.85864866  0.34401009  1.0
  O  O6072  1  0.03888059  0.10031492  0.32364690  1.0
  O  O6073  1  0.03888059  0.26698158  0.32364690  1.0
  O  O6074  1  0.03888059  0.43364825  0.32364690  1.0
  O  O6075  1  0.03888059  0.60031492  0.32364690  1.0
  O  O6076  1  0.03888059  0.76698158  0.32364690  1.0
  O  O6077  1  0.03888059  0.93364825  0.32364690  1.0
  O  O6078  1  0.12978969  0.10031492  0.32364690  1.0
  O  O6079  1  0.12978969  0.26698158  0.32364690  1.0
  O  O6080  1  0.12978969  0.43364825  0.32364690  1.0
  O  O6081  1  0.12978969  0.60031492  0.32364690  1.0
  O  O6082  1  0.12978969  0.76698158  0.32364690  1.0
  O  O6083  1  0.12978969  0.93364825  0.32364690  1.0
  O  O6084  1  0.22069878  0.10031492  0.32364690  1.0
  O  O6085  1  0.22069878  0.26698158  0.32364690  1.0
  O  O6086  1  0.22069878  0.43364825  0.32364690  1.0
  O  O6087  1  0.22069878  0.60031492  0.32364690  1.0
  O  O6088  1  0.22069878  0.76698158  0.32364690  1.0
  O  O6089  1  0.22069878  0.93364825  0.32364690  1.0
  O  O6090  1  0.31160787  0.10031492  0.32364690  1.0
  O  O6091  1  0.31160787  0.26698158  0.32364690  1.0
  O  O6092  1  0.31160787  0.43364825  0.32364690  1.0
  O  O6093  1  0.31160787  0.60031492  0.32364690  1.0
  O  O6094  1  0.31160787  0.76698158  0.32364690  1.0
  O  O6095  1  0.31160787  0.93364825  0.32364690  1.0
  O  O6096  1  0.40251696  0.10031492  0.32364690  1.0
  O  O6097  1  0.40251696  0.26698158  0.32364690  1.0
  O  O6098  1  0.40251696  0.43364825  0.32364690  1.0
  O  O6099  1  0.40251696  0.60031492  0.32364690  1.0
  O  O6100  1  0.40251696  0.76698158  0.32364690  1.0
  O  O6101  1  0.40251696  0.93364825  0.32364690  1.0
  O  O6102  1  0.49342605  0.10031492  0.32364690  1.0
  O  O6103  1  0.49342605  0.26698158  0.32364690  1.0
  O  O6104  1  0.49342605  0.43364825  0.32364690  1.0
  O  O6105  1  0.49342605  0.60031492  0.32364690  1.0
  O  O6106  1  0.49342605  0.76698158  0.32364690  1.0
  O  O6107  1  0.49342605  0.93364825  0.32364690  1.0
  O  O6108  1  0.58433514  0.10031492  0.32364690  1.0
  O  O6109  1  0.58433514  0.26698158  0.32364690  1.0
  O  O6110  1  0.58433514  0.43364825  0.32364690  1.0
  O  O6111  1  0.58433514  0.60031492  0.32364690  1.0
  O  O6112  1  0.58433514  0.76698158  0.32364690  1.0
  O  O6113  1  0.58433514  0.93364825  0.32364690  1.0
  O  O6114  1  0.67524423  0.10031492  0.32364690  1.0
  O  O6115  1  0.67524423  0.26698158  0.32364690  1.0
  O  O6116  1  0.67524423  0.43364825  0.32364690  1.0
  O  O6117  1  0.67524423  0.60031492  0.32364690  1.0
  O  O6118  1  0.67524423  0.76698158  0.32364690  1.0
  O  O6119  1  0.67524423  0.93364825  0.32364690  1.0
  O  O6120  1  0.76615332  0.10031492  0.32364690  1.0
  O  O6121  1  0.76615332  0.26698158  0.32364690  1.0
  O  O6122  1  0.76615332  0.43364825  0.32364690  1.0
  O  O6123  1  0.76615332  0.60031492  0.32364690  1.0
  O  O6124  1  0.76615332  0.76698158  0.32364690  1.0
  O  O6125  1  0.76615332  0.93364825  0.32364690  1.0
  O  O6126  1  0.85706241  0.10031492  0.32364690  1.0
  O  O6127  1  0.85706241  0.26698158  0.32364690  1.0
  O  O6128  1  0.85706241  0.43364825  0.32364690  1.0
  O  O6129  1  0.85706241  0.60031492  0.32364690  1.0
  O  O6130  1  0.85706241  0.76698158  0.32364690  1.0
  O  O6131  1  0.85706241  0.93364825  0.32364690  1.0
  O  O6132  1  0.94797150  0.10031492  0.32364690  1.0
  O  O6133  1  0.94797150  0.26698158  0.32364690  1.0
  O  O6134  1  0.94797150  0.43364825  0.32364690  1.0
  O  O6135  1  0.94797150  0.60031492  0.32364690  1.0
  O  O6136  1  0.94797150  0.76698158  0.32364690  1.0
  O  O6137  1  0.94797150  0.93364825  0.32364690  1.0
  O  O6138  1  0.08433514  0.11221968  0.25221833  1.0
  O  O6139  1  0.08433514  0.27888635  0.25221833  1.0
  O  O6140  1  0.08433514  0.44555301  0.25221833  1.0
  O  O6141  1  0.08433514  0.61221968  0.25221833  1.0
  O  O6142  1  0.08433514  0.77888634  0.25221833  1.0
  O  O6143  1  0.08433514  0.94555301  0.25221833  1.0
  O  O6144  1  0.17524423  0.11221968  0.25221833  1.0
  O  O6145  1  0.17524423  0.27888635  0.25221833  1.0
  O  O6146  1  0.17524423  0.44555301  0.25221833  1.0
  O  O6147  1  0.17524423  0.61221968  0.25221833  1.0
  O  O6148  1  0.17524423  0.77888634  0.25221833  1.0
  O  O6149  1  0.17524423  0.94555301  0.25221833  1.0
  O  O6150  1  0.26615332  0.11221968  0.25221833  1.0
  O  O6151  1  0.26615332  0.27888635  0.25221833  1.0
  O  O6152  1  0.26615332  0.44555301  0.25221833  1.0
  O  O6153  1  0.26615332  0.61221968  0.25221833  1.0
  O  O6154  1  0.26615332  0.77888634  0.25221833  1.0
  O  O6155  1  0.26615332  0.94555301  0.25221833  1.0
  O  O6156  1  0.35706241  0.11221968  0.25221833  1.0
  O  O6157  1  0.35706241  0.27888635  0.25221833  1.0
  O  O6158  1  0.35706241  0.44555301  0.25221833  1.0
  O  O6159  1  0.35706241  0.61221968  0.25221833  1.0
  O  O6160  1  0.35706241  0.77888634  0.25221833  1.0
  O  O6161  1  0.35706241  0.94555301  0.25221833  1.0
  O  O6162  1  0.44797150  0.11221968  0.25221833  1.0
  O  O6163  1  0.44797150  0.27888635  0.25221833  1.0
  O  O6164  1  0.44797150  0.44555301  0.25221833  1.0
  O  O6165  1  0.44797150  0.61221968  0.25221833  1.0
  O  O6166  1  0.44797150  0.77888634  0.25221833  1.0
  O  O6167  1  0.44797150  0.94555301  0.25221833  1.0
  O  O6168  1  0.53888059  0.11221968  0.25221833  1.0
  O  O6169  1  0.53888059  0.27888635  0.25221833  1.0
  O  O6170  1  0.53888059  0.44555301  0.25221833  1.0
  O  O6171  1  0.53888059  0.61221968  0.25221833  1.0
  O  O6172  1  0.53888059  0.77888634  0.25221833  1.0
  O  O6173  1  0.53888059  0.94555301  0.25221833  1.0
  O  O6174  1  0.62978969  0.11221968  0.25221833  1.0
  O  O6175  1  0.62978969  0.27888635  0.25221833  1.0
  O  O6176  1  0.62978969  0.44555301  0.25221833  1.0
  O  O6177  1  0.62978969  0.61221968  0.25221833  1.0
  O  O6178  1  0.62978969  0.77888634  0.25221833  1.0
  O  O6179  1  0.62978969  0.94555301  0.25221833  1.0
  O  O6180  1  0.72069878  0.11221968  0.25221833  1.0
  O  O6181  1  0.72069878  0.27888635  0.25221833  1.0
  O  O6182  1  0.72069878  0.44555301  0.25221833  1.0
  O  O6183  1  0.72069878  0.61221968  0.25221833  1.0
  O  O6184  1  0.72069878  0.77888634  0.25221833  1.0
  O  O6185  1  0.72069878  0.94555301  0.25221833  1.0
  O  O6186  1  0.81160787  0.11221968  0.25221833  1.0
  O  O6187  1  0.81160787  0.27888635  0.25221833  1.0
  O  O6188  1  0.81160787  0.44555301  0.25221833  1.0
  O  O6189  1  0.81160787  0.61221968  0.25221833  1.0
  O  O6190  1  0.81160787  0.77888634  0.25221833  1.0
  O  O6191  1  0.81160787  0.94555301  0.25221833  1.0
  O  O6192  1  0.90251696  0.11221968  0.25221833  1.0
  O  O6193  1  0.90251696  0.27888635  0.25221833  1.0
  O  O6194  1  0.90251696  0.44555301  0.25221833  1.0
  O  O6195  1  0.90251696  0.61221968  0.25221833  1.0
  O  O6196  1  0.90251696  0.77888634  0.25221833  1.0
  O  O6197  1  0.90251696  0.94555301  0.25221833  1.0
  O  O6198  1  0.99342605  0.11221968  0.25221833  1.0
  O  O6199  1  0.99342605  0.27888635  0.25221833  1.0
  O  O6200  1  0.99342605  0.44555301  0.25221833  1.0
  O  O6201  1  0.99342605  0.61221968  0.25221833  1.0
  O  O6202  1  0.99342605  0.77888634  0.25221833  1.0
  O  O6203  1  0.99342605  0.94555301  0.25221833  1.0
  O  O6204  1  0.07037231  0.00800629  0.30285283  1.0
  O  O6205  1  0.07037231  0.17467296  0.30285283  1.0
  O  O6206  1  0.07037231  0.34133963  0.30285283  1.0
  O  O6207  1  0.07037231  0.50800629  0.30285283  1.0
  O  O6208  1  0.07037231  0.67467296  0.30285283  1.0
  O  O6209  1  0.07037231  0.84133962  0.30285283  1.0
  O  O6210  1  0.16128140  0.00800629  0.30285283  1.0
  O  O6211  1  0.16128140  0.17467296  0.30285283  1.0
  O  O6212  1  0.16128140  0.34133963  0.30285283  1.0
  O  O6213  1  0.16128140  0.50800629  0.30285283  1.0
  O  O6214  1  0.16128140  0.67467296  0.30285283  1.0
  O  O6215  1  0.16128140  0.84133962  0.30285283  1.0
  O  O6216  1  0.25219049  0.00800629  0.30285283  1.0
  O  O6217  1  0.25219049  0.17467296  0.30285283  1.0
  O  O6218  1  0.25219049  0.34133963  0.30285283  1.0
  O  O6219  1  0.25219049  0.50800629  0.30285283  1.0
  O  O6220  1  0.25219049  0.67467296  0.30285283  1.0
  O  O6221  1  0.25219049  0.84133962  0.30285283  1.0
  O  O6222  1  0.34309958  0.00800629  0.30285283  1.0
  O  O6223  1  0.34309958  0.17467296  0.30285283  1.0
  O  O6224  1  0.34309958  0.34133963  0.30285283  1.0
  O  O6225  1  0.34309958  0.50800629  0.30285283  1.0
  O  O6226  1  0.34309958  0.67467296  0.30285283  1.0
  O  O6227  1  0.34309958  0.84133962  0.30285283  1.0
  O  O6228  1  0.43400867  0.00800629  0.30285283  1.0
  O  O6229  1  0.43400867  0.17467296  0.30285283  1.0
  O  O6230  1  0.43400867  0.34133963  0.30285283  1.0
  O  O6231  1  0.43400867  0.50800629  0.30285283  1.0
  O  O6232  1  0.43400867  0.67467296  0.30285283  1.0
  O  O6233  1  0.43400867  0.84133962  0.30285283  1.0
  O  O6234  1  0.52491776  0.00800629  0.30285283  1.0
  O  O6235  1  0.52491776  0.17467296  0.30285283  1.0
  O  O6236  1  0.52491776  0.34133963  0.30285283  1.0
  O  O6237  1  0.52491776  0.50800629  0.30285283  1.0
  O  O6238  1  0.52491776  0.67467296  0.30285283  1.0
  O  O6239  1  0.52491776  0.84133962  0.30285283  1.0
  O  O6240  1  0.61582685  0.00800629  0.30285283  1.0
  O  O6241  1  0.61582685  0.17467296  0.30285283  1.0
  O  O6242  1  0.61582685  0.34133963  0.30285283  1.0
  O  O6243  1  0.61582685  0.50800629  0.30285283  1.0
  O  O6244  1  0.61582685  0.67467296  0.30285283  1.0
  O  O6245  1  0.61582685  0.84133962  0.30285283  1.0
  O  O6246  1  0.70673594  0.00800629  0.30285283  1.0
  O  O6247  1  0.70673594  0.17467296  0.30285283  1.0
  O  O6248  1  0.70673594  0.34133963  0.30285283  1.0
  O  O6249  1  0.70673594  0.50800629  0.30285283  1.0
  O  O6250  1  0.70673594  0.67467296  0.30285283  1.0
  O  O6251  1  0.70673594  0.84133962  0.30285283  1.0
  O  O6252  1  0.79764504  0.00800629  0.30285283  1.0
  O  O6253  1  0.79764504  0.17467296  0.30285283  1.0
  O  O6254  1  0.79764504  0.34133963  0.30285283  1.0
  O  O6255  1  0.79764504  0.50800629  0.30285283  1.0
  O  O6256  1  0.79764504  0.67467296  0.30285283  1.0
  O  O6257  1  0.79764504  0.84133962  0.30285283  1.0
  O  O6258  1  0.88855413  0.00800629  0.30285283  1.0
  O  O6259  1  0.88855413  0.17467296  0.30285283  1.0
  O  O6260  1  0.88855413  0.34133963  0.30285283  1.0
  O  O6261  1  0.88855413  0.50800629  0.30285283  1.0
  O  O6262  1  0.88855413  0.67467296  0.30285283  1.0
  O  O6263  1  0.88855413  0.84133962  0.30285283  1.0
  O  O6264  1  0.97946322  0.00800629  0.30285283  1.0
  O  O6265  1  0.97946322  0.17467296  0.30285283  1.0
  O  O6266  1  0.97946322  0.34133963  0.30285283  1.0
  O  O6267  1  0.97946322  0.50800629  0.30285283  1.0
  O  O6268  1  0.97946322  0.67467296  0.30285283  1.0
  O  O6269  1  0.97946322  0.84133962  0.30285283  1.0
  O  O6270  1  0.02491776  0.01991105  0.23142426  1.0
  O  O6271  1  0.02491776  0.18657772  0.23142426  1.0
  O  O6272  1  0.02491776  0.35324439  0.23142426  1.0
  O  O6273  1  0.02491776  0.51991105  0.23142426  1.0
  O  O6274  1  0.02491776  0.68657772  0.23142426  1.0
  O  O6275  1  0.02491776  0.85324439  0.23142426  1.0
  O  O6276  1  0.11582685  0.01991105  0.23142426  1.0
  O  O6277  1  0.11582685  0.18657772  0.23142426  1.0
  O  O6278  1  0.11582685  0.35324439  0.23142426  1.0
  O  O6279  1  0.11582685  0.51991105  0.23142426  1.0
  O  O6280  1  0.11582685  0.68657772  0.23142426  1.0
  O  O6281  1  0.11582685  0.85324439  0.23142426  1.0
  O  O6282  1  0.20673594  0.01991105  0.23142426  1.0
  O  O6283  1  0.20673594  0.18657772  0.23142426  1.0
  O  O6284  1  0.20673594  0.35324439  0.23142426  1.0
  O  O6285  1  0.20673594  0.51991105  0.23142426  1.0
  O  O6286  1  0.20673594  0.68657772  0.23142426  1.0
  O  O6287  1  0.20673594  0.85324439  0.23142426  1.0
  O  O6288  1  0.29764504  0.01991105  0.23142426  1.0
  O  O6289  1  0.29764504  0.18657772  0.23142426  1.0
  O  O6290  1  0.29764504  0.35324439  0.23142426  1.0
  O  O6291  1  0.29764504  0.51991105  0.23142426  1.0
  O  O6292  1  0.29764504  0.68657772  0.23142426  1.0
  O  O6293  1  0.29764504  0.85324439  0.23142426  1.0
  O  O6294  1  0.38855413  0.01991105  0.23142426  1.0
  O  O6295  1  0.38855413  0.18657772  0.23142426  1.0
  O  O6296  1  0.38855413  0.35324439  0.23142426  1.0
  O  O6297  1  0.38855413  0.51991105  0.23142426  1.0
  O  O6298  1  0.38855413  0.68657772  0.23142426  1.0
  O  O6299  1  0.38855413  0.85324439  0.23142426  1.0
  O  O6300  1  0.47946322  0.01991105  0.23142426  1.0
  O  O6301  1  0.47946322  0.18657772  0.23142426  1.0
  O  O6302  1  0.47946322  0.35324439  0.23142426  1.0
  O  O6303  1  0.47946322  0.51991105  0.23142426  1.0
  O  O6304  1  0.47946322  0.68657772  0.23142426  1.0
  O  O6305  1  0.47946322  0.85324439  0.23142426  1.0
  O  O6306  1  0.57037231  0.01991105  0.23142426  1.0
  O  O6307  1  0.57037231  0.18657772  0.23142426  1.0
  O  O6308  1  0.57037231  0.35324439  0.23142426  1.0
  O  O6309  1  0.57037231  0.51991105  0.23142426  1.0
  O  O6310  1  0.57037231  0.68657772  0.23142426  1.0
  O  O6311  1  0.57037231  0.85324439  0.23142426  1.0
  O  O6312  1  0.66128140  0.01991105  0.23142426  1.0
  O  O6313  1  0.66128140  0.18657772  0.23142426  1.0
  O  O6314  1  0.66128140  0.35324439  0.23142426  1.0
  O  O6315  1  0.66128140  0.51991105  0.23142426  1.0
  O  O6316  1  0.66128140  0.68657772  0.23142426  1.0
  O  O6317  1  0.66128140  0.85324439  0.23142426  1.0
  O  O6318  1  0.75219049  0.01991105  0.23142426  1.0
  O  O6319  1  0.75219049  0.18657772  0.23142426  1.0
  O  O6320  1  0.75219049  0.35324439  0.23142426  1.0
  O  O6321  1  0.75219049  0.51991105  0.23142426  1.0
  O  O6322  1  0.75219049  0.68657772  0.23142426  1.0
  O  O6323  1  0.75219049  0.85324439  0.23142426  1.0
  O  O6324  1  0.84309958  0.01991105  0.23142426  1.0
  O  O6325  1  0.84309958  0.18657772  0.23142426  1.0
  O  O6326  1  0.84309958  0.35324439  0.23142426  1.0
  O  O6327  1  0.84309958  0.51991105  0.23142426  1.0
  O  O6328  1  0.84309958  0.68657772  0.23142426  1.0
  O  O6329  1  0.84309958  0.85324439  0.23142426  1.0
  O  O6330  1  0.93400867  0.01991105  0.23142426  1.0
  O  O6331  1  0.93400867  0.18657772  0.23142426  1.0
  O  O6332  1  0.93400867  0.35324439  0.23142426  1.0
  O  O6333  1  0.93400867  0.51991105  0.23142426  1.0
  O  O6334  1  0.93400867  0.68657772  0.23142426  1.0
  O  O6335  1  0.93400867  0.85324439  0.23142426  1.0
  O  O6336  1  0.04458126  0.14631386  0.33662210  1.0
  O  O6337  1  0.04458126  0.31298052  0.33662210  1.0
  O  O6338  1  0.04458126  0.47964719  0.33662210  1.0
  O  O6339  1  0.04458126  0.64631386  0.33662210  1.0
  O  O6340  1  0.04458126  0.81298052  0.33662210  1.0
  O  O6341  1  0.04458126  0.97964719  0.33662210  1.0
  O  O6342  1  0.13549035  0.14631386  0.33662210  1.0
  O  O6343  1  0.13549035  0.31298052  0.33662210  1.0
  O  O6344  1  0.13549035  0.47964719  0.33662210  1.0
  O  O6345  1  0.13549035  0.64631386  0.33662210  1.0
  O  O6346  1  0.13549035  0.81298052  0.33662210  1.0
  O  O6347  1  0.13549035  0.97964719  0.33662210  1.0
  O  O6348  1  0.22639944  0.14631386  0.33662210  1.0
  O  O6349  1  0.22639944  0.31298052  0.33662210  1.0
  O  O6350  1  0.22639944  0.47964719  0.33662210  1.0
  O  O6351  1  0.22639944  0.64631386  0.33662210  1.0
  O  O6352  1  0.22639944  0.81298052  0.33662210  1.0
  O  O6353  1  0.22639944  0.97964719  0.33662210  1.0
  O  O6354  1  0.31730853  0.14631386  0.33662210  1.0
  O  O6355  1  0.31730853  0.31298052  0.33662210  1.0
  O  O6356  1  0.31730853  0.47964719  0.33662210  1.0
  O  O6357  1  0.31730853  0.64631386  0.33662210  1.0
  O  O6358  1  0.31730853  0.81298052  0.33662210  1.0
  O  O6359  1  0.31730853  0.97964719  0.33662210  1.0
  O  O6360  1  0.40821762  0.14631386  0.33662210  1.0
  O  O6361  1  0.40821763  0.31298052  0.33662210  1.0
  O  O6362  1  0.40821762  0.47964719  0.33662210  1.0
  O  O6363  1  0.40821763  0.64631386  0.33662210  1.0
  O  O6364  1  0.40821762  0.81298052  0.33662210  1.0
  O  O6365  1  0.40821762  0.97964719  0.33662210  1.0
  O  O6366  1  0.49912672  0.14631386  0.33662210  1.0
  O  O6367  1  0.49912672  0.31298052  0.33662210  1.0
  O  O6368  1  0.49912672  0.47964719  0.33662210  1.0
  O  O6369  1  0.49912672  0.64631386  0.33662210  1.0
  O  O6370  1  0.49912672  0.81298052  0.33662210  1.0
  O  O6371  1  0.49912672  0.97964719  0.33662210  1.0
  O  O6372  1  0.59003581  0.14631386  0.33662210  1.0
  O  O6373  1  0.59003581  0.31298052  0.33662210  1.0
  O  O6374  1  0.59003581  0.47964719  0.33662210  1.0
  O  O6375  1  0.59003581  0.64631386  0.33662210  1.0
  O  O6376  1  0.59003581  0.81298052  0.33662210  1.0
  O  O6377  1  0.59003581  0.97964719  0.33662210  1.0
  O  O6378  1  0.68094490  0.14631386  0.33662210  1.0
  O  O6379  1  0.68094490  0.31298052  0.33662210  1.0
  O  O6380  1  0.68094490  0.47964719  0.33662210  1.0
  O  O6381  1  0.68094490  0.64631386  0.33662210  1.0
  O  O6382  1  0.68094490  0.81298052  0.33662210  1.0
  O  O6383  1  0.68094490  0.97964719  0.33662210  1.0
  O  O6384  1  0.77185399  0.14631386  0.33662210  1.0
  O  O6385  1  0.77185399  0.31298052  0.33662210  1.0
  O  O6386  1  0.77185399  0.47964719  0.33662210  1.0
  O  O6387  1  0.77185399  0.64631386  0.33662210  1.0
  O  O6388  1  0.77185399  0.81298052  0.33662210  1.0
  O  O6389  1  0.77185399  0.97964719  0.33662210  1.0
  O  O6390  1  0.86276308  0.14631386  0.33662210  1.0
  O  O6391  1  0.86276308  0.31298052  0.33662210  1.0
  O  O6392  1  0.86276308  0.47964719  0.33662210  1.0
  O  O6393  1  0.86276308  0.64631386  0.33662210  1.0
  O  O6394  1  0.86276308  0.81298052  0.33662210  1.0
  O  O6395  1  0.86276308  0.97964719  0.33662210  1.0
  O  O6396  1  0.95367217  0.14631386  0.33662210  1.0
  O  O6397  1  0.95367217  0.31298052  0.33662210  1.0
  O  O6398  1  0.95367217  0.47964719  0.33662210  1.0
  O  O6399  1  0.95367217  0.64631386  0.33662210  1.0
  O  O6400  1  0.95367217  0.81298052  0.33662210  1.0
  O  O6401  1  0.95367217  0.97964719  0.33662210  1.0
  O  O6402  1  0.09003581  0.15821862  0.26519353  1.0
  O  O6403  1  0.09003581  0.32488528  0.26519353  1.0
  O  O6404  1  0.09003581  0.49155195  0.26519353  1.0
  O  O6405  1  0.09003581  0.65821862  0.26519353  1.0
  O  O6406  1  0.09003581  0.82488528  0.26519353  1.0
  O  O6407  1  0.09003581  0.99155195  0.26519353  1.0
  O  O6408  1  0.18094490  0.15821862  0.26519353  1.0
  O  O6409  1  0.18094490  0.32488528  0.26519353  1.0
  O  O6410  1  0.18094490  0.49155195  0.26519353  1.0
  O  O6411  1  0.18094490  0.65821862  0.26519353  1.0
  O  O6412  1  0.18094490  0.82488528  0.26519353  1.0
  O  O6413  1  0.18094490  0.99155195  0.26519353  1.0
  O  O6414  1  0.27185399  0.15821862  0.26519353  1.0
  O  O6415  1  0.27185399  0.32488528  0.26519353  1.0
  O  O6416  1  0.27185399  0.49155195  0.26519353  1.0
  O  O6417  1  0.27185399  0.65821862  0.26519353  1.0
  O  O6418  1  0.27185399  0.82488528  0.26519353  1.0
  O  O6419  1  0.27185399  0.99155195  0.26519353  1.0
  O  O6420  1  0.36276308  0.15821862  0.26519353  1.0
  O  O6421  1  0.36276308  0.32488528  0.26519353  1.0
  O  O6422  1  0.36276308  0.49155195  0.26519353  1.0
  O  O6423  1  0.36276308  0.65821862  0.26519353  1.0
  O  O6424  1  0.36276308  0.82488528  0.26519353  1.0
  O  O6425  1  0.36276308  0.99155195  0.26519353  1.0
  O  O6426  1  0.45367217  0.15821862  0.26519353  1.0
  O  O6427  1  0.45367217  0.32488528  0.26519353  1.0
  O  O6428  1  0.45367217  0.49155195  0.26519353  1.0
  O  O6429  1  0.45367217  0.65821862  0.26519353  1.0
  O  O6430  1  0.45367217  0.82488528  0.26519353  1.0
  O  O6431  1  0.45367217  0.99155195  0.26519353  1.0
  O  O6432  1  0.54458126  0.15821862  0.26519353  1.0
  O  O6433  1  0.54458126  0.32488528  0.26519353  1.0
  O  O6434  1  0.54458126  0.49155195  0.26519353  1.0
  O  O6435  1  0.54458126  0.65821862  0.26519353  1.0
  O  O6436  1  0.54458126  0.82488528  0.26519353  1.0
  O  O6437  1  0.54458126  0.99155195  0.26519353  1.0
  O  O6438  1  0.63549035  0.15821862  0.26519353  1.0
  O  O6439  1  0.63549035  0.32488528  0.26519353  1.0
  O  O6440  1  0.63549035  0.49155195  0.26519353  1.0
  O  O6441  1  0.63549035  0.65821862  0.26519353  1.0
  O  O6442  1  0.63549035  0.82488528  0.26519353  1.0
  O  O6443  1  0.63549035  0.99155195  0.26519353  1.0
  O  O6444  1  0.72639944  0.15821862  0.26519353  1.0
  O  O6445  1  0.72639944  0.32488528  0.26519353  1.0
  O  O6446  1  0.72639944  0.49155195  0.26519353  1.0
  O  O6447  1  0.72639944  0.65821862  0.26519353  1.0
  O  O6448  1  0.72639944  0.82488528  0.26519353  1.0
  O  O6449  1  0.72639944  0.99155195  0.26519353  1.0
  O  O6450  1  0.81730853  0.15821862  0.26519353  1.0
  O  O6451  1  0.81730853  0.32488528  0.26519353  1.0
  O  O6452  1  0.81730853  0.49155195  0.26519353  1.0
  O  O6453  1  0.81730853  0.65821862  0.26519353  1.0
  O  O6454  1  0.81730853  0.82488528  0.26519353  1.0
  O  O6455  1  0.81730853  0.99155195  0.26519353  1.0
  O  O6456  1  0.90821763  0.15821862  0.26519353  1.0
  O  O6457  1  0.90821763  0.32488528  0.26519353  1.0
  O  O6458  1  0.90821763  0.49155195  0.26519353  1.0
  O  O6459  1  0.90821762  0.65821862  0.26519353  1.0
  O  O6460  1  0.90821763  0.82488528  0.26519353  1.0
  O  O6461  1  0.90821763  0.99155195  0.26519353  1.0
  O  O6462  1  0.99912672  0.15821862  0.26519353  1.0
  O  O6463  1  0.99912672  0.32488528  0.26519353  1.0
  O  O6464  1  0.99912672  0.49155195  0.26519353  1.0
  O  O6465  1  0.99912672  0.65821862  0.26519353  1.0
  O  O6466  1  0.99912672  0.82488528  0.26519353  1.0
  O  O6467  1  0.99912672  0.99155195  0.26519353  1.0
  O  O6468  1  0.03244008  0.05560846  0.31230303  1.0
  O  O6469  1  0.03244008  0.22227512  0.31230303  1.0
  O  O6470  1  0.03244008  0.38894179  0.31230303  1.0
  O  O6471  1  0.03244008  0.55560846  0.31230303  1.0
  O  O6472  1  0.03244008  0.72227512  0.31230303  1.0
  O  O6473  1  0.03244008  0.88894179  0.31230303  1.0
  O  O6474  1  0.12334917  0.05560846  0.31230303  1.0
  O  O6475  1  0.12334917  0.22227512  0.31230303  1.0
  O  O6476  1  0.12334917  0.38894179  0.31230303  1.0
  O  O6477  1  0.12334917  0.55560846  0.31230303  1.0
  O  O6478  1  0.12334917  0.72227512  0.31230303  1.0
  O  O6479  1  0.12334917  0.88894179  0.31230303  1.0
  O  O6480  1  0.21425826  0.05560846  0.31230303  1.0
  O  O6481  1  0.21425826  0.22227512  0.31230303  1.0
  O  O6482  1  0.21425826  0.38894179  0.31230303  1.0
  O  O6483  1  0.21425826  0.55560846  0.31230303  1.0
  O  O6484  1  0.21425826  0.72227512  0.31230303  1.0
  O  O6485  1  0.21425826  0.88894179  0.31230303  1.0
  O  O6486  1  0.30516735  0.05560846  0.31230303  1.0
  O  O6487  1  0.30516735  0.22227512  0.31230303  1.0
  O  O6488  1  0.30516735  0.38894179  0.31230303  1.0
  O  O6489  1  0.30516735  0.55560846  0.31230303  1.0
  O  O6490  1  0.30516735  0.72227512  0.31230303  1.0
  O  O6491  1  0.30516735  0.88894179  0.31230303  1.0
  O  O6492  1  0.39607644  0.05560846  0.31230303  1.0
  O  O6493  1  0.39607644  0.22227512  0.31230303  1.0
  O  O6494  1  0.39607644  0.38894179  0.31230303  1.0
  O  O6495  1  0.39607644  0.55560846  0.31230303  1.0
  O  O6496  1  0.39607644  0.72227512  0.31230303  1.0
  O  O6497  1  0.39607644  0.88894179  0.31230303  1.0
  O  O6498  1  0.48698553  0.05560846  0.31230303  1.0
  O  O6499  1  0.48698553  0.22227512  0.31230303  1.0
  O  O6500  1  0.48698553  0.38894179  0.31230303  1.0
  O  O6501  1  0.48698553  0.55560846  0.31230303  1.0
  O  O6502  1  0.48698553  0.72227512  0.31230303  1.0
  O  O6503  1  0.48698553  0.88894179  0.31230303  1.0
  O  O6504  1  0.57789462  0.05560846  0.31230303  1.0
  O  O6505  1  0.57789462  0.22227512  0.31230303  1.0
  O  O6506  1  0.57789462  0.38894179  0.31230303  1.0
  O  O6507  1  0.57789462  0.55560846  0.31230303  1.0
  O  O6508  1  0.57789462  0.72227512  0.31230303  1.0
  O  O6509  1  0.57789462  0.88894179  0.31230303  1.0
  O  O6510  1  0.66880371  0.05560846  0.31230303  1.0
  O  O6511  1  0.66880371  0.22227512  0.31230303  1.0
  O  O6512  1  0.66880371  0.38894179  0.31230303  1.0
  O  O6513  1  0.66880371  0.55560846  0.31230303  1.0
  O  O6514  1  0.66880371  0.72227512  0.31230303  1.0
  O  O6515  1  0.66880371  0.88894179  0.31230303  1.0
  O  O6516  1  0.75971280  0.05560846  0.31230303  1.0
  O  O6517  1  0.75971280  0.22227512  0.31230303  1.0
  O  O6518  1  0.75971280  0.38894179  0.31230303  1.0
  O  O6519  1  0.75971280  0.55560846  0.31230303  1.0
  O  O6520  1  0.75971280  0.72227512  0.31230303  1.0
  O  O6521  1  0.75971280  0.88894179  0.31230303  1.0
  O  O6522  1  0.85062189  0.05560846  0.31230303  1.0
  O  O6523  1  0.85062189  0.22227512  0.31230303  1.0
  O  O6524  1  0.85062189  0.38894179  0.31230303  1.0
  O  O6525  1  0.85062189  0.55560846  0.31230303  1.0
  O  O6526  1  0.85062189  0.72227512  0.31230303  1.0
  O  O6527  1  0.85062189  0.88894179  0.31230303  1.0
  O  O6528  1  0.94153099  0.05560846  0.31230303  1.0
  O  O6529  1  0.94153099  0.22227512  0.31230303  1.0
  O  O6530  1  0.94153099  0.38894179  0.31230303  1.0
  O  O6531  1  0.94153099  0.55560846  0.31230303  1.0
  O  O6532  1  0.94153099  0.72227512  0.31230303  1.0
  O  O6533  1  0.94153099  0.88894179  0.31230303  1.0
  O  O6534  1  0.07789462  0.06751322  0.24087446  1.0
  O  O6535  1  0.07789462  0.23417988  0.24087446  1.0
  O  O6536  1  0.07789462  0.40084655  0.24087446  1.0
  O  O6537  1  0.07789462  0.56751322  0.24087446  1.0
  O  O6538  1  0.07789462  0.73417988  0.24087446  1.0
  O  O6539  1  0.07789462  0.90084655  0.24087446  1.0
  O  O6540  1  0.16880371  0.06751322  0.24087446  1.0
  O  O6541  1  0.16880371  0.23417988  0.24087446  1.0
  O  O6542  1  0.16880371  0.40084655  0.24087446  1.0
  O  O6543  1  0.16880371  0.56751322  0.24087446  1.0
  O  O6544  1  0.16880371  0.73417988  0.24087446  1.0
  O  O6545  1  0.16880371  0.90084655  0.24087446  1.0
  O  O6546  1  0.25971280  0.06751322  0.24087446  1.0
  O  O6547  1  0.25971280  0.23417988  0.24087446  1.0
  O  O6548  1  0.25971280  0.40084655  0.24087446  1.0
  O  O6549  1  0.25971280  0.56751322  0.24087446  1.0
  O  O6550  1  0.25971280  0.73417988  0.24087446  1.0
  O  O6551  1  0.25971280  0.90084655  0.24087446  1.0
  O  O6552  1  0.35062189  0.06751322  0.24087446  1.0
  O  O6553  1  0.35062189  0.23417988  0.24087446  1.0
  O  O6554  1  0.35062189  0.40084655  0.24087446  1.0
  O  O6555  1  0.35062189  0.56751322  0.24087446  1.0
  O  O6556  1  0.35062189  0.73417988  0.24087446  1.0
  O  O6557  1  0.35062189  0.90084655  0.24087446  1.0
  O  O6558  1  0.44153098  0.06751322  0.24087446  1.0
  O  O6559  1  0.44153098  0.23417988  0.24087446  1.0
  O  O6560  1  0.44153098  0.40084655  0.24087446  1.0
  O  O6561  1  0.44153098  0.56751322  0.24087446  1.0
  O  O6562  1  0.44153098  0.73417988  0.24087446  1.0
  O  O6563  1  0.44153098  0.90084655  0.24087446  1.0
  O  O6564  1  0.53244008  0.06751322  0.24087446  1.0
  O  O6565  1  0.53244008  0.23417988  0.24087446  1.0
  O  O6566  1  0.53244008  0.40084655  0.24087446  1.0
  O  O6567  1  0.53244008  0.56751322  0.24087446  1.0
  O  O6568  1  0.53244008  0.73417988  0.24087446  1.0
  O  O6569  1  0.53244008  0.90084655  0.24087446  1.0
  O  O6570  1  0.62334917  0.06751322  0.24087446  1.0
  O  O6571  1  0.62334917  0.23417988  0.24087446  1.0
  O  O6572  1  0.62334917  0.40084655  0.24087446  1.0
  O  O6573  1  0.62334917  0.56751322  0.24087446  1.0
  O  O6574  1  0.62334917  0.73417988  0.24087446  1.0
  O  O6575  1  0.62334917  0.90084655  0.24087446  1.0
  O  O6576  1  0.71425826  0.06751322  0.24087446  1.0
  O  O6577  1  0.71425826  0.23417988  0.24087446  1.0
  O  O6578  1  0.71425826  0.40084655  0.24087446  1.0
  O  O6579  1  0.71425826  0.56751322  0.24087446  1.0
  O  O6580  1  0.71425826  0.73417988  0.24087446  1.0
  O  O6581  1  0.71425826  0.90084655  0.24087446  1.0
  O  O6582  1  0.80516735  0.06751322  0.24087446  1.0
  O  O6583  1  0.80516735  0.23417988  0.24087446  1.0
  O  O6584  1  0.80516735  0.40084655  0.24087446  1.0
  O  O6585  1  0.80516735  0.56751322  0.24087446  1.0
  O  O6586  1  0.80516735  0.73417988  0.24087446  1.0
  O  O6587  1  0.80516735  0.90084655  0.24087446  1.0
  O  O6588  1  0.89607644  0.06751322  0.24087446  1.0
  O  O6589  1  0.89607644  0.23417988  0.24087446  1.0
  O  O6590  1  0.89607644  0.40084655  0.24087446  1.0
  O  O6591  1  0.89607644  0.56751322  0.24087446  1.0
  O  O6592  1  0.89607644  0.73417988  0.24087446  1.0
  O  O6593  1  0.89607644  0.90084655  0.24087446  1.0
  O  O6594  1  0.98698553  0.06751322  0.24087446  1.0
  O  O6595  1  0.98698553  0.23417988  0.24087446  1.0
  O  O6596  1  0.98698553  0.40084655  0.24087446  1.0
  O  O6597  1  0.98698553  0.56751322  0.24087446  1.0
  O  O6598  1  0.98698553  0.73417988  0.24087446  1.0
  O  O6599  1  0.98698553  0.90084655  0.24087446  1.0
  O  O6600  1  0.07874726  0.05543056  0.31074845  1.0
  O  O6601  1  0.07874726  0.22209723  0.31074845  1.0
  O  O6602  1  0.07874726  0.38876389  0.31074845  1.0
  O  O6603  1  0.07874726  0.55543056  0.31074845  1.0
  O  O6604  1  0.07874726  0.72209723  0.31074845  1.0
  O  O6605  1  0.07874726  0.88876389  0.31074845  1.0
  O  O6606  1  0.16965635  0.05543056  0.31074845  1.0
  O  O6607  1  0.16965635  0.22209723  0.31074845  1.0
  O  O6608  1  0.16965635  0.38876389  0.31074845  1.0
  O  O6609  1  0.16965635  0.55543056  0.31074845  1.0
  O  O6610  1  0.16965635  0.72209723  0.31074845  1.0
  O  O6611  1  0.16965635  0.88876389  0.31074845  1.0
  O  O6612  1  0.26056544  0.05543056  0.31074845  1.0
  O  O6613  1  0.26056544  0.22209723  0.31074845  1.0
  O  O6614  1  0.26056544  0.38876389  0.31074845  1.0
  O  O6615  1  0.26056544  0.55543056  0.31074845  1.0
  O  O6616  1  0.26056544  0.72209723  0.31074845  1.0
  O  O6617  1  0.26056544  0.88876389  0.31074845  1.0
  O  O6618  1  0.35147453  0.05543056  0.31074845  1.0
  O  O6619  1  0.35147453  0.22209723  0.31074845  1.0
  O  O6620  1  0.35147453  0.38876389  0.31074845  1.0
  O  O6621  1  0.35147453  0.55543056  0.31074845  1.0
  O  O6622  1  0.35147453  0.72209723  0.31074845  1.0
  O  O6623  1  0.35147453  0.88876389  0.31074845  1.0
  O  O6624  1  0.44238362  0.05543056  0.31074845  1.0
  O  O6625  1  0.44238362  0.22209723  0.31074845  1.0
  O  O6626  1  0.44238362  0.38876389  0.31074845  1.0
  O  O6627  1  0.44238362  0.55543056  0.31074845  1.0
  O  O6628  1  0.44238362  0.72209723  0.31074845  1.0
  O  O6629  1  0.44238362  0.88876389  0.31074845  1.0
  O  O6630  1  0.53329271  0.05543056  0.31074845  1.0
  O  O6631  1  0.53329271  0.22209723  0.31074845  1.0
  O  O6632  1  0.53329271  0.38876389  0.31074845  1.0
  O  O6633  1  0.53329271  0.55543056  0.31074845  1.0
  O  O6634  1  0.53329271  0.72209723  0.31074845  1.0
  O  O6635  1  0.53329271  0.88876389  0.31074845  1.0
  O  O6636  1  0.62420180  0.05543056  0.31074845  1.0
  O  O6637  1  0.62420180  0.22209723  0.31074845  1.0
  O  O6638  1  0.62420180  0.38876389  0.31074845  1.0
  O  O6639  1  0.62420180  0.55543056  0.31074845  1.0
  O  O6640  1  0.62420180  0.72209723  0.31074845  1.0
  O  O6641  1  0.62420180  0.88876389  0.31074845  1.0
  O  O6642  1  0.71511089  0.05543056  0.31074845  1.0
  O  O6643  1  0.71511089  0.22209723  0.31074845  1.0
  O  O6644  1  0.71511089  0.38876389  0.31074845  1.0
  O  O6645  1  0.71511089  0.55543056  0.31074845  1.0
  O  O6646  1  0.71511089  0.72209723  0.31074845  1.0
  O  O6647  1  0.71511089  0.88876389  0.31074845  1.0
  O  O6648  1  0.80601998  0.05543056  0.31074845  1.0
  O  O6649  1  0.80601998  0.22209723  0.31074845  1.0
  O  O6650  1  0.80601998  0.38876389  0.31074845  1.0
  O  O6651  1  0.80601998  0.55543056  0.31074845  1.0
  O  O6652  1  0.80601998  0.72209723  0.31074845  1.0
  O  O6653  1  0.80601998  0.88876389  0.31074845  1.0
  O  O6654  1  0.89692907  0.05543056  0.31074845  1.0
  O  O6655  1  0.89692907  0.22209723  0.31074845  1.0
  O  O6656  1  0.89692907  0.38876389  0.31074845  1.0
  O  O6657  1  0.89692907  0.55543056  0.31074845  1.0
  O  O6658  1  0.89692907  0.72209723  0.31074845  1.0
  O  O6659  1  0.89692907  0.88876389  0.31074845  1.0
  O  O6660  1  0.98783817  0.05543056  0.31074845  1.0
  O  O6661  1  0.98783817  0.22209723  0.31074845  1.0
  O  O6662  1  0.98783817  0.38876389  0.31074845  1.0
  O  O6663  1  0.98783817  0.55543056  0.31074845  1.0
  O  O6664  1  0.98783817  0.72209723  0.31074845  1.0
  O  O6665  1  0.98783817  0.88876389  0.31074845  1.0
  O  O6666  1  0.03329271  0.06733532  0.23931988  1.0
  O  O6667  1  0.03329271  0.23400199  0.23931988  1.0
  O  O6668  1  0.03329271  0.40066865  0.23931988  1.0
  O  O6669  1  0.03329271  0.56733532  0.23931988  1.0
  O  O6670  1  0.03329271  0.73400199  0.23931988  1.0
  O  O6671  1  0.03329271  0.90066865  0.23931988  1.0
  O  O6672  1  0.12420180  0.06733532  0.23931988  1.0
  O  O6673  1  0.12420180  0.23400199  0.23931988  1.0
  O  O6674  1  0.12420180  0.40066865  0.23931988  1.0
  O  O6675  1  0.12420180  0.56733532  0.23931988  1.0
  O  O6676  1  0.12420180  0.73400199  0.23931988  1.0
  O  O6677  1  0.12420180  0.90066865  0.23931988  1.0
  O  O6678  1  0.21511089  0.06733532  0.23931988  1.0
  O  O6679  1  0.21511089  0.23400199  0.23931988  1.0
  O  O6680  1  0.21511089  0.40066865  0.23931988  1.0
  O  O6681  1  0.21511089  0.56733532  0.23931988  1.0
  O  O6682  1  0.21511089  0.73400199  0.23931988  1.0
  O  O6683  1  0.21511089  0.90066865  0.23931988  1.0
  O  O6684  1  0.30601998  0.06733532  0.23931988  1.0
  O  O6685  1  0.30601998  0.23400199  0.23931988  1.0
  O  O6686  1  0.30601998  0.40066865  0.23931988  1.0
  O  O6687  1  0.30601998  0.56733532  0.23931988  1.0
  O  O6688  1  0.30601998  0.73400199  0.23931988  1.0
  O  O6689  1  0.30601998  0.90066865  0.23931988  1.0
  O  O6690  1  0.39692907  0.06733532  0.23931988  1.0
  O  O6691  1  0.39692907  0.23400199  0.23931988  1.0
  O  O6692  1  0.39692907  0.40066865  0.23931988  1.0
  O  O6693  1  0.39692907  0.56733532  0.23931988  1.0
  O  O6694  1  0.39692907  0.73400199  0.23931988  1.0
  O  O6695  1  0.39692907  0.90066865  0.23931988  1.0
  O  O6696  1  0.48783817  0.06733532  0.23931988  1.0
  O  O6697  1  0.48783817  0.23400199  0.23931988  1.0
  O  O6698  1  0.48783817  0.40066865  0.23931988  1.0
  O  O6699  1  0.48783817  0.56733532  0.23931988  1.0
  O  O6700  1  0.48783816  0.73400199  0.23931988  1.0
  O  O6701  1  0.48783816  0.90066865  0.23931988  1.0
  O  O6702  1  0.57874726  0.06733532  0.23931988  1.0
  O  O6703  1  0.57874726  0.23400199  0.23931988  1.0
  O  O6704  1  0.57874726  0.40066865  0.23931988  1.0
  O  O6705  1  0.57874726  0.56733532  0.23931988  1.0
  O  O6706  1  0.57874726  0.73400199  0.23931988  1.0
  O  O6707  1  0.57874726  0.90066865  0.23931988  1.0
  O  O6708  1  0.66965635  0.06733532  0.23931988  1.0
  O  O6709  1  0.66965635  0.23400199  0.23931988  1.0
  O  O6710  1  0.66965635  0.40066865  0.23931988  1.0
  O  O6711  1  0.66965635  0.56733532  0.23931988  1.0
  O  O6712  1  0.66965635  0.73400199  0.23931988  1.0
  O  O6713  1  0.66965635  0.90066865  0.23931988  1.0
  O  O6714  1  0.76056544  0.06733532  0.23931988  1.0
  O  O6715  1  0.76056544  0.23400199  0.23931988  1.0
  O  O6716  1  0.76056544  0.40066865  0.23931988  1.0
  O  O6717  1  0.76056544  0.56733532  0.23931988  1.0
  O  O6718  1  0.76056544  0.73400199  0.23931988  1.0
  O  O6719  1  0.76056544  0.90066865  0.23931988  1.0
  O  O6720  1  0.85147453  0.06733532  0.23931988  1.0
  O  O6721  1  0.85147453  0.23400199  0.23931988  1.0
  O  O6722  1  0.85147453  0.40066865  0.23931988  1.0
  O  O6723  1  0.85147453  0.56733532  0.23931988  1.0
  O  O6724  1  0.85147453  0.73400199  0.23931988  1.0
  O  O6725  1  0.85147453  0.90066865  0.23931988  1.0
  O  O6726  1  0.94238362  0.06733532  0.23931988  1.0
  O  O6727  1  0.94238362  0.23400199  0.23931988  1.0
  O  O6728  1  0.94238362  0.40066865  0.23931988  1.0
  O  O6729  1  0.94238362  0.56733532  0.23931988  1.0
  O  O6730  1  0.94238362  0.73400199  0.23931988  1.0
  O  O6731  1  0.94238362  0.90066865  0.23931988  1.0
  O  O6732  1  0.02741305  0.00974697  0.30344792  1.0
  O  O6733  1  0.02741305  0.17641364  0.30344792  1.0
  O  O6734  1  0.02741305  0.34308030  0.30344792  1.0
  O  O6735  1  0.02741305  0.50974697  0.30344792  1.0
  O  O6736  1  0.02741305  0.67641364  0.30344792  1.0
  O  O6737  1  0.02741305  0.84308030  0.30344792  1.0
  O  O6738  1  0.11832214  0.00974697  0.30344792  1.0
  O  O6739  1  0.11832214  0.17641364  0.30344792  1.0
  O  O6740  1  0.11832214  0.34308030  0.30344792  1.0
  O  O6741  1  0.11832214  0.50974697  0.30344792  1.0
  O  O6742  1  0.11832214  0.67641364  0.30344792  1.0
  O  O6743  1  0.11832214  0.84308030  0.30344792  1.0
  O  O6744  1  0.20923123  0.00974697  0.30344792  1.0
  O  O6745  1  0.20923123  0.17641364  0.30344792  1.0
  O  O6746  1  0.20923123  0.34308030  0.30344792  1.0
  O  O6747  1  0.20923123  0.50974697  0.30344792  1.0
  O  O6748  1  0.20923123  0.67641364  0.30344792  1.0
  O  O6749  1  0.20923123  0.84308030  0.30344792  1.0
  O  O6750  1  0.30014032  0.00974697  0.30344792  1.0
  O  O6751  1  0.30014032  0.17641364  0.30344792  1.0
  O  O6752  1  0.30014032  0.34308030  0.30344792  1.0
  O  O6753  1  0.30014032  0.50974697  0.30344792  1.0
  O  O6754  1  0.30014032  0.67641364  0.30344792  1.0
  O  O6755  1  0.30014032  0.84308030  0.30344792  1.0
  O  O6756  1  0.39104941  0.00974697  0.30344792  1.0
  O  O6757  1  0.39104941  0.17641364  0.30344792  1.0
  O  O6758  1  0.39104941  0.34308030  0.30344792  1.0
  O  O6759  1  0.39104941  0.50974697  0.30344792  1.0
  O  O6760  1  0.39104941  0.67641364  0.30344792  1.0
  O  O6761  1  0.39104941  0.84308030  0.30344792  1.0
  O  O6762  1  0.48195851  0.00974697  0.30344792  1.0
  O  O6763  1  0.48195851  0.17641364  0.30344792  1.0
  O  O6764  1  0.48195851  0.34308030  0.30344792  1.0
  O  O6765  1  0.48195851  0.50974697  0.30344792  1.0
  O  O6766  1  0.48195851  0.67641364  0.30344792  1.0
  O  O6767  1  0.48195851  0.84308030  0.30344792  1.0
  O  O6768  1  0.57286760  0.00974697  0.30344792  1.0
  O  O6769  1  0.57286760  0.17641364  0.30344792  1.0
  O  O6770  1  0.57286760  0.34308030  0.30344792  1.0
  O  O6771  1  0.57286760  0.50974697  0.30344792  1.0
  O  O6772  1  0.57286760  0.67641364  0.30344792  1.0
  O  O6773  1  0.57286760  0.84308030  0.30344792  1.0
  O  O6774  1  0.66377669  0.00974697  0.30344792  1.0
  O  O6775  1  0.66377669  0.17641364  0.30344792  1.0
  O  O6776  1  0.66377669  0.34308030  0.30344792  1.0
  O  O6777  1  0.66377669  0.50974697  0.30344792  1.0
  O  O6778  1  0.66377669  0.67641364  0.30344792  1.0
  O  O6779  1  0.66377669  0.84308030  0.30344792  1.0
  O  O6780  1  0.75468578  0.00974697  0.30344792  1.0
  O  O6781  1  0.75468578  0.17641364  0.30344792  1.0
  O  O6782  1  0.75468578  0.34308030  0.30344792  1.0
  O  O6783  1  0.75468578  0.50974697  0.30344792  1.0
  O  O6784  1  0.75468578  0.67641364  0.30344792  1.0
  O  O6785  1  0.75468578  0.84308030  0.30344792  1.0
  O  O6786  1  0.84559487  0.00974697  0.30344792  1.0
  O  O6787  1  0.84559487  0.17641364  0.30344792  1.0
  O  O6788  1  0.84559487  0.34308030  0.30344792  1.0
  O  O6789  1  0.84559487  0.50974697  0.30344792  1.0
  O  O6790  1  0.84559487  0.67641364  0.30344792  1.0
  O  O6791  1  0.84559487  0.84308030  0.30344792  1.0
  O  O6792  1  0.93650396  0.00974697  0.30344792  1.0
  O  O6793  1  0.93650396  0.17641364  0.30344792  1.0
  O  O6794  1  0.93650396  0.34308030  0.30344792  1.0
  O  O6795  1  0.93650396  0.50974697  0.30344792  1.0
  O  O6796  1  0.93650396  0.67641364  0.30344792  1.0
  O  O6797  1  0.93650396  0.84308030  0.30344792  1.0
  O  O6798  1  0.07286760  0.02165173  0.23201935  1.0
  O  O6799  1  0.07286760  0.18831840  0.23201935  1.0
  O  O6800  1  0.07286760  0.35498506  0.23201935  1.0
  O  O6801  1  0.07286760  0.52165173  0.23201935  1.0
  O  O6802  1  0.07286760  0.68831840  0.23201935  1.0
  O  O6803  1  0.07286760  0.85498506  0.23201935  1.0
  O  O6804  1  0.16377669  0.02165173  0.23201935  1.0
  O  O6805  1  0.16377669  0.18831840  0.23201935  1.0
  O  O6806  1  0.16377669  0.35498506  0.23201935  1.0
  O  O6807  1  0.16377669  0.52165173  0.23201935  1.0
  O  O6808  1  0.16377669  0.68831840  0.23201935  1.0
  O  O6809  1  0.16377669  0.85498506  0.23201935  1.0
  O  O6810  1  0.25468578  0.02165173  0.23201935  1.0
  O  O6811  1  0.25468578  0.18831840  0.23201935  1.0
  O  O6812  1  0.25468578  0.35498506  0.23201935  1.0
  O  O6813  1  0.25468578  0.52165173  0.23201935  1.0
  O  O6814  1  0.25468578  0.68831840  0.23201935  1.0
  O  O6815  1  0.25468578  0.85498506  0.23201935  1.0
  O  O6816  1  0.34559487  0.02165173  0.23201935  1.0
  O  O6817  1  0.34559487  0.18831840  0.23201935  1.0
  O  O6818  1  0.34559487  0.35498506  0.23201935  1.0
  O  O6819  1  0.34559487  0.52165173  0.23201935  1.0
  O  O6820  1  0.34559487  0.68831840  0.23201935  1.0
  O  O6821  1  0.34559487  0.85498506  0.23201935  1.0
  O  O6822  1  0.43650396  0.02165173  0.23201935  1.0
  O  O6823  1  0.43650396  0.18831840  0.23201935  1.0
  O  O6824  1  0.43650396  0.35498506  0.23201935  1.0
  O  O6825  1  0.43650396  0.52165173  0.23201935  1.0
  O  O6826  1  0.43650396  0.68831840  0.23201935  1.0
  O  O6827  1  0.43650396  0.85498506  0.23201935  1.0
  O  O6828  1  0.52741305  0.02165173  0.23201935  1.0
  O  O6829  1  0.52741305  0.18831840  0.23201935  1.0
  O  O6830  1  0.52741305  0.35498506  0.23201935  1.0
  O  O6831  1  0.52741305  0.52165173  0.23201935  1.0
  O  O6832  1  0.52741305  0.68831840  0.23201935  1.0
  O  O6833  1  0.52741305  0.85498506  0.23201935  1.0
  O  O6834  1  0.61832214  0.02165173  0.23201935  1.0
  O  O6835  1  0.61832214  0.18831840  0.23201935  1.0
  O  O6836  1  0.61832214  0.35498506  0.23201935  1.0
  O  O6837  1  0.61832214  0.52165173  0.23201935  1.0
  O  O6838  1  0.61832214  0.68831840  0.23201935  1.0
  O  O6839  1  0.61832214  0.85498506  0.23201935  1.0
  O  O6840  1  0.70923123  0.02165173  0.23201935  1.0
  O  O6841  1  0.70923123  0.18831840  0.23201935  1.0
  O  O6842  1  0.70923123  0.35498506  0.23201935  1.0
  O  O6843  1  0.70923123  0.52165173  0.23201935  1.0
  O  O6844  1  0.70923123  0.68831840  0.23201935  1.0
  O  O6845  1  0.70923123  0.85498506  0.23201935  1.0
  O  O6846  1  0.80014032  0.02165173  0.23201935  1.0
  O  O6847  1  0.80014032  0.18831840  0.23201935  1.0
  O  O6848  1  0.80014032  0.35498506  0.23201935  1.0
  O  O6849  1  0.80014032  0.52165173  0.23201935  1.0
  O  O6850  1  0.80014032  0.68831840  0.23201935  1.0
  O  O6851  1  0.80014032  0.85498506  0.23201935  1.0
  O  O6852  1  0.89104941  0.02165173  0.23201935  1.0
  O  O6853  1  0.89104941  0.18831840  0.23201935  1.0
  O  O6854  1  0.89104941  0.35498506  0.23201935  1.0
  O  O6855  1  0.89104941  0.52165173  0.23201935  1.0
  O  O6856  1  0.89104941  0.68831840  0.23201935  1.0
  O  O6857  1  0.89104941  0.85498506  0.23201935  1.0
  O  O6858  1  0.98195851  0.02165173  0.23201935  1.0
  O  O6859  1  0.98195851  0.18831840  0.23201935  1.0
  O  O6860  1  0.98195851  0.35498506  0.23201935  1.0
  O  O6861  1  0.98195851  0.52165173  0.23201935  1.0
  O  O6862  1  0.98195851  0.68831840  0.23201935  1.0
  O  O6863  1  0.98195851  0.85498506  0.23201935  1.0
  O  O6864  1  0.05291745  0.02697988  0.34456516  1.0
  O  O6865  1  0.05291745  0.19364655  0.34456516  1.0
  O  O6866  1  0.05291745  0.36031321  0.34456516  1.0
  O  O6867  1  0.05291745  0.52697988  0.34456516  1.0
  O  O6868  1  0.05291745  0.69364655  0.34456516  1.0
  O  O6869  1  0.05291745  0.86031321  0.34456516  1.0
  O  O6870  1  0.14382654  0.02697988  0.34456516  1.0
  O  O6871  1  0.14382654  0.19364655  0.34456516  1.0
  O  O6872  1  0.14382654  0.36031321  0.34456516  1.0
  O  O6873  1  0.14382654  0.52697988  0.34456516  1.0
  O  O6874  1  0.14382654  0.69364655  0.34456516  1.0
  O  O6875  1  0.14382654  0.86031321  0.34456516  1.0
  O  O6876  1  0.23473563  0.02697988  0.34456516  1.0
  O  O6877  1  0.23473563  0.19364655  0.34456516  1.0
  O  O6878  1  0.23473563  0.36031321  0.34456516  1.0
  O  O6879  1  0.23473563  0.52697988  0.34456516  1.0
  O  O6880  1  0.23473563  0.69364655  0.34456516  1.0
  O  O6881  1  0.23473563  0.86031321  0.34456516  1.0
  O  O6882  1  0.32564472  0.02697988  0.34456516  1.0
  O  O6883  1  0.32564472  0.19364655  0.34456516  1.0
  O  O6884  1  0.32564472  0.36031321  0.34456516  1.0
  O  O6885  1  0.32564472  0.52697988  0.34456516  1.0
  O  O6886  1  0.32564472  0.69364655  0.34456516  1.0
  O  O6887  1  0.32564472  0.86031321  0.34456516  1.0
  O  O6888  1  0.41655381  0.02697988  0.34456516  1.0
  O  O6889  1  0.41655381  0.19364655  0.34456516  1.0
  O  O6890  1  0.41655381  0.36031321  0.34456516  1.0
  O  O6891  1  0.41655381  0.52697988  0.34456516  1.0
  O  O6892  1  0.41655381  0.69364655  0.34456516  1.0
  O  O6893  1  0.41655381  0.86031321  0.34456516  1.0
  O  O6894  1  0.50746290  0.02697988  0.34456516  1.0
  O  O6895  1  0.50746290  0.19364655  0.34456516  1.0
  O  O6896  1  0.50746290  0.36031321  0.34456516  1.0
  O  O6897  1  0.50746290  0.52697988  0.34456516  1.0
  O  O6898  1  0.50746290  0.69364655  0.34456516  1.0
  O  O6899  1  0.50746290  0.86031321  0.34456516  1.0
  O  O6900  1  0.59837200  0.02697988  0.34456516  1.0
  O  O6901  1  0.59837200  0.19364655  0.34456516  1.0
  O  O6902  1  0.59837200  0.36031321  0.34456516  1.0
  O  O6903  1  0.59837200  0.52697988  0.34456516  1.0
  O  O6904  1  0.59837200  0.69364655  0.34456516  1.0
  O  O6905  1  0.59837200  0.86031321  0.34456516  1.0
  O  O6906  1  0.68928109  0.02697988  0.34456516  1.0
  O  O6907  1  0.68928109  0.19364655  0.34456516  1.0
  O  O6908  1  0.68928109  0.36031321  0.34456516  1.0
  O  O6909  1  0.68928109  0.52697988  0.34456516  1.0
  O  O6910  1  0.68928109  0.69364655  0.34456516  1.0
  O  O6911  1  0.68928109  0.86031321  0.34456516  1.0
  O  O6912  1  0.78019018  0.02697988  0.34456516  1.0
  O  O6913  1  0.78019018  0.19364655  0.34456516  1.0
  O  O6914  1  0.78019018  0.36031321  0.34456516  1.0
  O  O6915  1  0.78019018  0.52697988  0.34456516  1.0
  O  O6916  1  0.78019018  0.69364655  0.34456516  1.0
  O  O6917  1  0.78019018  0.86031321  0.34456516  1.0
  O  O6918  1  0.87109927  0.02697988  0.34456516  1.0
  O  O6919  1  0.87109927  0.19364655  0.34456516  1.0
  O  O6920  1  0.87109927  0.36031321  0.34456516  1.0
  O  O6921  1  0.87109927  0.52697988  0.34456516  1.0
  O  O6922  1  0.87109927  0.69364655  0.34456516  1.0
  O  O6923  1  0.87109927  0.86031321  0.34456516  1.0
  O  O6924  1  0.96200836  0.02697988  0.34456516  1.0
  O  O6925  1  0.96200836  0.19364655  0.34456516  1.0
  O  O6926  1  0.96200836  0.36031321  0.34456516  1.0
  O  O6927  1  0.96200836  0.52697988  0.34456516  1.0
  O  O6928  1  0.96200836  0.69364655  0.34456516  1.0
  O  O6929  1  0.96200836  0.86031321  0.34456516  1.0
  O  O6930  1  0.00746290  0.03888464  0.27313659  1.0
  O  O6931  1  0.00746290  0.20555131  0.27313659  1.0
  O  O6932  1  0.00746290  0.37221798  0.27313659  1.0
  O  O6933  1  0.00746290  0.53888464  0.27313659  1.0
  O  O6934  1  0.00746290  0.70555131  0.27313659  1.0
  O  O6935  1  0.00746290  0.87221798  0.27313659  1.0
  O  O6936  1  0.09837200  0.03888464  0.27313659  1.0
  O  O6937  1  0.09837200  0.20555131  0.27313659  1.0
  O  O6938  1  0.09837200  0.37221798  0.27313659  1.0
  O  O6939  1  0.09837200  0.53888464  0.27313659  1.0
  O  O6940  1  0.09837200  0.70555131  0.27313659  1.0
  O  O6941  1  0.09837200  0.87221798  0.27313659  1.0
  O  O6942  1  0.18928109  0.03888464  0.27313659  1.0
  O  O6943  1  0.18928109  0.20555131  0.27313659  1.0
  O  O6944  1  0.18928109  0.37221798  0.27313659  1.0
  O  O6945  1  0.18928109  0.53888464  0.27313659  1.0
  O  O6946  1  0.18928109  0.70555131  0.27313659  1.0
  O  O6947  1  0.18928109  0.87221798  0.27313659  1.0
  O  O6948  1  0.28019018  0.03888464  0.27313659  1.0
  O  O6949  1  0.28019018  0.20555131  0.27313659  1.0
  O  O6950  1  0.28019018  0.37221798  0.27313659  1.0
  O  O6951  1  0.28019018  0.53888464  0.27313659  1.0
  O  O6952  1  0.28019018  0.70555131  0.27313659  1.0
  O  O6953  1  0.28019018  0.87221798  0.27313659  1.0
  O  O6954  1  0.37109927  0.03888464  0.27313659  1.0
  O  O6955  1  0.37109927  0.20555131  0.27313659  1.0
  O  O6956  1  0.37109927  0.37221798  0.27313659  1.0
  O  O6957  1  0.37109927  0.53888464  0.27313659  1.0
  O  O6958  1  0.37109927  0.70555131  0.27313659  1.0
  O  O6959  1  0.37109927  0.87221798  0.27313659  1.0
  O  O6960  1  0.46200836  0.03888464  0.27313659  1.0
  O  O6961  1  0.46200836  0.20555131  0.27313659  1.0
  O  O6962  1  0.46200836  0.37221798  0.27313659  1.0
  O  O6963  1  0.46200836  0.53888464  0.27313659  1.0
  O  O6964  1  0.46200836  0.70555131  0.27313659  1.0
  O  O6965  1  0.46200836  0.87221798  0.27313659  1.0
  O  O6966  1  0.55291745  0.03888464  0.27313659  1.0
  O  O6967  1  0.55291745  0.20555131  0.27313659  1.0
  O  O6968  1  0.55291745  0.37221798  0.27313659  1.0
  O  O6969  1  0.55291745  0.53888464  0.27313659  1.0
  O  O6970  1  0.55291745  0.70555131  0.27313659  1.0
  O  O6971  1  0.55291745  0.87221798  0.27313659  1.0
  O  O6972  1  0.64382654  0.03888464  0.27313659  1.0
  O  O6973  1  0.64382654  0.20555131  0.27313659  1.0
  O  O6974  1  0.64382654  0.37221798  0.27313659  1.0
  O  O6975  1  0.64382654  0.53888464  0.27313659  1.0
  O  O6976  1  0.64382654  0.70555131  0.27313659  1.0
  O  O6977  1  0.64382654  0.87221798  0.27313659  1.0
  O  O6978  1  0.73473563  0.03888464  0.27313659  1.0
  O  O6979  1  0.73473563  0.20555131  0.27313659  1.0
  O  O6980  1  0.73473563  0.37221798  0.27313659  1.0
  O  O6981  1  0.73473563  0.53888464  0.27313659  1.0
  O  O6982  1  0.73473563  0.70555131  0.27313659  1.0
  O  O6983  1  0.73473563  0.87221798  0.27313659  1.0
  O  O6984  1  0.82564472  0.03888464  0.27313659  1.0
  O  O6985  1  0.82564472  0.20555131  0.27313659  1.0
  O  O6986  1  0.82564472  0.37221798  0.27313659  1.0
  O  O6987  1  0.82564472  0.53888464  0.27313659  1.0
  O  O6988  1  0.82564472  0.70555131  0.27313659  1.0
  O  O6989  1  0.82564472  0.87221798  0.27313659  1.0
  O  O6990  1  0.91655381  0.03888464  0.27313659  1.0
  O  O6991  1  0.91655381  0.20555131  0.27313659  1.0
  O  O6992  1  0.91655381  0.37221798  0.27313659  1.0
  O  O6993  1  0.91655381  0.53888464  0.27313659  1.0
  O  O6994  1  0.91655381  0.70555131  0.27313659  1.0
  O  O6995  1  0.91655381  0.87221798  0.27313659  1.0
  O  O6996  1  0.03896435  0.08945822  0.39516281  1.0
  O  O6997  1  0.03896435  0.25612488  0.39516281  1.0
  O  O6998  1  0.03896435  0.42279155  0.39516281  1.0
  O  O6999  1  0.03896435  0.58945822  0.39516281  1.0
  O  O7000  1  0.03896435  0.75612488  0.39516281  1.0
  O  O7001  1  0.03896435  0.92279155  0.39516281  1.0
  O  O7002  1  0.12987344  0.08945822  0.39516281  1.0
  O  O7003  1  0.12987344  0.25612488  0.39516281  1.0
  O  O7004  1  0.12987344  0.42279155  0.39516281  1.0
  O  O7005  1  0.12987344  0.58945822  0.39516281  1.0
  O  O7006  1  0.12987344  0.75612488  0.39516281  1.0
  O  O7007  1  0.12987344  0.92279155  0.39516281  1.0
  O  O7008  1  0.22078253  0.08945822  0.39516281  1.0
  O  O7009  1  0.22078253  0.25612488  0.39516281  1.0
  O  O7010  1  0.22078253  0.42279155  0.39516281  1.0
  O  O7011  1  0.22078253  0.58945822  0.39516281  1.0
  O  O7012  1  0.22078253  0.75612488  0.39516281  1.0
  O  O7013  1  0.22078253  0.92279155  0.39516281  1.0
  O  O7014  1  0.31169162  0.08945822  0.39516281  1.0
  O  O7015  1  0.31169162  0.25612488  0.39516281  1.0
  O  O7016  1  0.31169162  0.42279155  0.39516281  1.0
  O  O7017  1  0.31169162  0.58945822  0.39516281  1.0
  O  O7018  1  0.31169162  0.75612488  0.39516281  1.0
  O  O7019  1  0.31169162  0.92279155  0.39516281  1.0
  O  O7020  1  0.40260071  0.08945822  0.39516281  1.0
  O  O7021  1  0.40260071  0.25612488  0.39516281  1.0
  O  O7022  1  0.40260071  0.42279155  0.39516281  1.0
  O  O7023  1  0.40260071  0.58945822  0.39516281  1.0
  O  O7024  1  0.40260071  0.75612488  0.39516281  1.0
  O  O7025  1  0.40260071  0.92279155  0.39516281  1.0
  O  O7026  1  0.49350980  0.08945822  0.39516281  1.0
  O  O7027  1  0.49350980  0.25612488  0.39516281  1.0
  O  O7028  1  0.49350980  0.42279155  0.39516281  1.0
  O  O7029  1  0.49350980  0.58945822  0.39516281  1.0
  O  O7030  1  0.49350980  0.75612488  0.39516281  1.0
  O  O7031  1  0.49350980  0.92279155  0.39516281  1.0
  O  O7032  1  0.58441889  0.08945822  0.39516281  1.0
  O  O7033  1  0.58441889  0.25612488  0.39516281  1.0
  O  O7034  1  0.58441889  0.42279155  0.39516281  1.0
  O  O7035  1  0.58441889  0.58945822  0.39516281  1.0
  O  O7036  1  0.58441889  0.75612488  0.39516281  1.0
  O  O7037  1  0.58441889  0.92279155  0.39516281  1.0
  O  O7038  1  0.67532798  0.08945822  0.39516281  1.0
  O  O7039  1  0.67532798  0.25612488  0.39516281  1.0
  O  O7040  1  0.67532798  0.42279155  0.39516281  1.0
  O  O7041  1  0.67532798  0.58945822  0.39516281  1.0
  O  O7042  1  0.67532798  0.75612488  0.39516281  1.0
  O  O7043  1  0.67532798  0.92279155  0.39516281  1.0
  O  O7044  1  0.76623707  0.08945822  0.39516281  1.0
  O  O7045  1  0.76623707  0.25612488  0.39516281  1.0
  O  O7046  1  0.76623707  0.42279155  0.39516281  1.0
  O  O7047  1  0.76623707  0.58945822  0.39516281  1.0
  O  O7048  1  0.76623707  0.75612488  0.39516281  1.0
  O  O7049  1  0.76623707  0.92279155  0.39516281  1.0
  O  O7050  1  0.85714616  0.08945822  0.39516281  1.0
  O  O7051  1  0.85714616  0.25612488  0.39516281  1.0
  O  O7052  1  0.85714616  0.42279155  0.39516281  1.0
  O  O7053  1  0.85714616  0.58945822  0.39516281  1.0
  O  O7054  1  0.85714616  0.75612488  0.39516281  1.0
  O  O7055  1  0.85714616  0.92279155  0.39516281  1.0
  O  O7056  1  0.94805525  0.08945822  0.39516281  1.0
  O  O7057  1  0.94805525  0.25612488  0.39516281  1.0
  O  O7058  1  0.94805525  0.42279155  0.39516281  1.0
  O  O7059  1  0.94805525  0.58945822  0.39516281  1.0
  O  O7060  1  0.94805525  0.75612488  0.39516281  1.0
  O  O7061  1  0.94805525  0.92279155  0.39516281  1.0
  O  O7062  1  0.08441889  0.07755345  0.46659138  1.0
  O  O7063  1  0.08441889  0.24422012  0.46659138  1.0
  O  O7064  1  0.08441889  0.41088679  0.46659138  1.0
  O  O7065  1  0.08441889  0.57755345  0.46659138  1.0
  O  O7066  1  0.08441889  0.74422012  0.46659138  1.0
  O  O7067  1  0.08441889  0.91088679  0.46659138  1.0
  O  O7068  1  0.17532798  0.07755345  0.46659138  1.0
  O  O7069  1  0.17532798  0.24422012  0.46659138  1.0
  O  O7070  1  0.17532798  0.41088679  0.46659138  1.0
  O  O7071  1  0.17532798  0.57755345  0.46659138  1.0
  O  O7072  1  0.17532798  0.74422012  0.46659138  1.0
  O  O7073  1  0.17532798  0.91088679  0.46659138  1.0
  O  O7074  1  0.26623707  0.07755345  0.46659138  1.0
  O  O7075  1  0.26623707  0.24422012  0.46659138  1.0
  O  O7076  1  0.26623707  0.41088679  0.46659138  1.0
  O  O7077  1  0.26623707  0.57755345  0.46659138  1.0
  O  O7078  1  0.26623707  0.74422012  0.46659138  1.0
  O  O7079  1  0.26623707  0.91088679  0.46659138  1.0
  O  O7080  1  0.35714616  0.07755345  0.46659138  1.0
  O  O7081  1  0.35714616  0.24422012  0.46659138  1.0
  O  O7082  1  0.35714616  0.41088679  0.46659138  1.0
  O  O7083  1  0.35714616  0.57755345  0.46659138  1.0
  O  O7084  1  0.35714616  0.74422012  0.46659138  1.0
  O  O7085  1  0.35714616  0.91088679  0.46659138  1.0
  O  O7086  1  0.44805525  0.07755345  0.46659138  1.0
  O  O7087  1  0.44805525  0.24422012  0.46659138  1.0
  O  O7088  1  0.44805525  0.41088679  0.46659138  1.0
  O  O7089  1  0.44805525  0.57755345  0.46659138  1.0
  O  O7090  1  0.44805525  0.74422012  0.46659138  1.0
  O  O7091  1  0.44805525  0.91088679  0.46659138  1.0
  O  O7092  1  0.53896435  0.07755345  0.46659138  1.0
  O  O7093  1  0.53896435  0.24422012  0.46659138  1.0
  O  O7094  1  0.53896435  0.41088679  0.46659138  1.0
  O  O7095  1  0.53896435  0.57755345  0.46659138  1.0
  O  O7096  1  0.53896435  0.74422012  0.46659138  1.0
  O  O7097  1  0.53896435  0.91088679  0.46659138  1.0
  O  O7098  1  0.62987344  0.07755345  0.46659138  1.0
  O  O7099  1  0.62987344  0.24422012  0.46659138  1.0
  O  O7100  1  0.62987344  0.41088679  0.46659138  1.0
  O  O7101  1  0.62987344  0.57755345  0.46659138  1.0
  O  O7102  1  0.62987344  0.74422012  0.46659138  1.0
  O  O7103  1  0.62987344  0.91088679  0.46659138  1.0
  O  O7104  1  0.72078253  0.07755345  0.46659138  1.0
  O  O7105  1  0.72078253  0.24422012  0.46659138  1.0
  O  O7106  1  0.72078253  0.41088679  0.46659138  1.0
  O  O7107  1  0.72078253  0.57755345  0.46659138  1.0
  O  O7108  1  0.72078253  0.74422012  0.46659138  1.0
  O  O7109  1  0.72078253  0.91088679  0.46659138  1.0
  O  O7110  1  0.81169162  0.07755345  0.46659138  1.0
  O  O7111  1  0.81169162  0.24422012  0.46659138  1.0
  O  O7112  1  0.81169162  0.41088679  0.46659138  1.0
  O  O7113  1  0.81169162  0.57755345  0.46659138  1.0
  O  O7114  1  0.81169162  0.74422012  0.46659138  1.0
  O  O7115  1  0.81169162  0.91088679  0.46659138  1.0
  O  O7116  1  0.90260071  0.07755345  0.46659138  1.0
  O  O7117  1  0.90260071  0.24422012  0.46659138  1.0
  O  O7118  1  0.90260071  0.41088679  0.46659138  1.0
  O  O7119  1  0.90260071  0.57755345  0.46659138  1.0
  O  O7120  1  0.90260071  0.74422012  0.46659138  1.0
  O  O7121  1  0.90260071  0.91088679  0.46659138  1.0
  O  O7122  1  0.99350980  0.07755345  0.46659138  1.0
  O  O7123  1  0.99350980  0.24422012  0.46659138  1.0
  O  O7124  1  0.99350980  0.41088679  0.46659138  1.0
  O  O7125  1  0.99350980  0.57755345  0.46659138  1.0
  O  O7126  1  0.99350980  0.74422012  0.46659138  1.0
  O  O7127  1  0.99350980  0.91088679  0.46659138  1.0
  O  O7128  1  0.04541204  0.13417810  0.40652406  1.0
  O  O7129  1  0.04541204  0.30084476  0.40652406  1.0
  O  O7130  1  0.04541204  0.46751143  0.40652406  1.0
  O  O7131  1  0.04541204  0.63417810  0.40652406  1.0
  O  O7132  1  0.04541204  0.80084476  0.40652406  1.0
  O  O7133  1  0.04541204  0.96751143  0.40652406  1.0
  O  O7134  1  0.13632113  0.13417810  0.40652406  1.0
  O  O7135  1  0.13632113  0.30084476  0.40652406  1.0
  O  O7136  1  0.13632113  0.46751143  0.40652406  1.0
  O  O7137  1  0.13632113  0.63417810  0.40652406  1.0
  O  O7138  1  0.13632113  0.80084476  0.40652406  1.0
  O  O7139  1  0.13632113  0.96751143  0.40652406  1.0
  O  O7140  1  0.22723022  0.13417810  0.40652406  1.0
  O  O7141  1  0.22723022  0.30084476  0.40652406  1.0
  O  O7142  1  0.22723022  0.46751143  0.40652406  1.0
  O  O7143  1  0.22723022  0.63417810  0.40652406  1.0
  O  O7144  1  0.22723022  0.80084476  0.40652406  1.0
  O  O7145  1  0.22723022  0.96751143  0.40652406  1.0
  O  O7146  1  0.31813931  0.13417810  0.40652406  1.0
  O  O7147  1  0.31813931  0.30084476  0.40652406  1.0
  O  O7148  1  0.31813931  0.46751143  0.40652406  1.0
  O  O7149  1  0.31813931  0.63417810  0.40652406  1.0
  O  O7150  1  0.31813931  0.80084476  0.40652406  1.0
  O  O7151  1  0.31813931  0.96751143  0.40652406  1.0
  O  O7152  1  0.40904840  0.13417810  0.40652406  1.0
  O  O7153  1  0.40904840  0.30084476  0.40652406  1.0
  O  O7154  1  0.40904840  0.46751143  0.40652406  1.0
  O  O7155  1  0.40904840  0.63417810  0.40652406  1.0
  O  O7156  1  0.40904840  0.80084476  0.40652406  1.0
  O  O7157  1  0.40904840  0.96751143  0.40652406  1.0
  O  O7158  1  0.49995749  0.13417810  0.40652406  1.0
  O  O7159  1  0.49995749  0.30084476  0.40652406  1.0
  O  O7160  1  0.49995749  0.46751143  0.40652406  1.0
  O  O7161  1  0.49995749  0.63417810  0.40652406  1.0
  O  O7162  1  0.49995749  0.80084476  0.40652406  1.0
  O  O7163  1  0.49995749  0.96751143  0.40652406  1.0
  O  O7164  1  0.59086659  0.13417810  0.40652406  1.0
  O  O7165  1  0.59086659  0.30084476  0.40652406  1.0
  O  O7166  1  0.59086659  0.46751143  0.40652406  1.0
  O  O7167  1  0.59086659  0.63417810  0.40652406  1.0
  O  O7168  1  0.59086659  0.80084476  0.40652406  1.0
  O  O7169  1  0.59086659  0.96751143  0.40652406  1.0
  O  O7170  1  0.68177568  0.13417810  0.40652406  1.0
  O  O7171  1  0.68177568  0.30084476  0.40652406  1.0
  O  O7172  1  0.68177568  0.46751143  0.40652406  1.0
  O  O7173  1  0.68177568  0.63417810  0.40652406  1.0
  O  O7174  1  0.68177568  0.80084476  0.40652406  1.0
  O  O7175  1  0.68177568  0.96751143  0.40652406  1.0
  O  O7176  1  0.77268477  0.13417810  0.40652406  1.0
  O  O7177  1  0.77268477  0.30084476  0.40652406  1.0
  O  O7178  1  0.77268477  0.46751143  0.40652406  1.0
  O  O7179  1  0.77268477  0.63417810  0.40652406  1.0
  O  O7180  1  0.77268477  0.80084476  0.40652406  1.0
  O  O7181  1  0.77268477  0.96751143  0.40652406  1.0
  O  O7182  1  0.86359386  0.13417810  0.40652406  1.0
  O  O7183  1  0.86359386  0.30084476  0.40652406  1.0
  O  O7184  1  0.86359386  0.46751143  0.40652406  1.0
  O  O7185  1  0.86359386  0.63417810  0.40652406  1.0
  O  O7186  1  0.86359386  0.80084476  0.40652406  1.0
  O  O7187  1  0.86359386  0.96751143  0.40652406  1.0
  O  O7188  1  0.95450295  0.13417810  0.40652406  1.0
  O  O7189  1  0.95450295  0.30084476  0.40652406  1.0
  O  O7190  1  0.95450295  0.46751143  0.40652406  1.0
  O  O7191  1  0.95450295  0.63417810  0.40652406  1.0
  O  O7192  1  0.95450295  0.80084476  0.40652406  1.0
  O  O7193  1  0.95450295  0.96751143  0.40652406  1.0
  O  O7194  1  0.09086659  0.12227333  0.47795263  1.0
  O  O7195  1  0.09086659  0.28894000  0.47795263  1.0
  O  O7196  1  0.09086659  0.45560667  0.47795263  1.0
  O  O7197  1  0.09086659  0.62227333  0.47795263  1.0
  O  O7198  1  0.09086659  0.78894000  0.47795263  1.0
  O  O7199  1  0.09086659  0.95560667  0.47795263  1.0
  O  O7200  1  0.18177568  0.12227333  0.47795263  1.0
  O  O7201  1  0.18177568  0.28894000  0.47795263  1.0
  O  O7202  1  0.18177568  0.45560667  0.47795263  1.0
  O  O7203  1  0.18177568  0.62227333  0.47795263  1.0
  O  O7204  1  0.18177568  0.78894000  0.47795263  1.0
  O  O7205  1  0.18177568  0.95560667  0.47795263  1.0
  O  O7206  1  0.27268477  0.12227333  0.47795263  1.0
  O  O7207  1  0.27268477  0.28894000  0.47795263  1.0
  O  O7208  1  0.27268477  0.45560667  0.47795263  1.0
  O  O7209  1  0.27268477  0.62227333  0.47795263  1.0
  O  O7210  1  0.27268477  0.78894000  0.47795263  1.0
  O  O7211  1  0.27268477  0.95560667  0.47795263  1.0
  O  O7212  1  0.36359386  0.12227333  0.47795263  1.0
  O  O7213  1  0.36359386  0.28894000  0.47795263  1.0
  O  O7214  1  0.36359386  0.45560667  0.47795263  1.0
  O  O7215  1  0.36359386  0.62227333  0.47795263  1.0
  O  O7216  1  0.36359386  0.78894000  0.47795263  1.0
  O  O7217  1  0.36359386  0.95560667  0.47795263  1.0
  O  O7218  1  0.45450295  0.12227333  0.47795263  1.0
  O  O7219  1  0.45450295  0.28894000  0.47795263  1.0
  O  O7220  1  0.45450295  0.45560667  0.47795263  1.0
  O  O7221  1  0.45450295  0.62227333  0.47795263  1.0
  O  O7222  1  0.45450295  0.78894000  0.47795263  1.0
  O  O7223  1  0.45450295  0.95560667  0.47795263  1.0
  O  O7224  1  0.54541204  0.12227333  0.47795263  1.0
  O  O7225  1  0.54541204  0.28894000  0.47795263  1.0
  O  O7226  1  0.54541204  0.45560667  0.47795263  1.0
  O  O7227  1  0.54541204  0.62227333  0.47795263  1.0
  O  O7228  1  0.54541204  0.78894000  0.47795263  1.0
  O  O7229  1  0.54541204  0.95560667  0.47795263  1.0
  O  O7230  1  0.63632113  0.12227333  0.47795263  1.0
  O  O7231  1  0.63632113  0.28894000  0.47795263  1.0
  O  O7232  1  0.63632113  0.45560667  0.47795263  1.0
  O  O7233  1  0.63632113  0.62227333  0.47795263  1.0
  O  O7234  1  0.63632113  0.78894000  0.47795263  1.0
  O  O7235  1  0.63632113  0.95560667  0.47795263  1.0
  O  O7236  1  0.72723022  0.12227333  0.47795263  1.0
  O  O7237  1  0.72723022  0.28894000  0.47795263  1.0
  O  O7238  1  0.72723022  0.45560667  0.47795263  1.0
  O  O7239  1  0.72723022  0.62227333  0.47795263  1.0
  O  O7240  1  0.72723022  0.78894000  0.47795263  1.0
  O  O7241  1  0.72723022  0.95560667  0.47795263  1.0
  O  O7242  1  0.81813931  0.12227333  0.47795263  1.0
  O  O7243  1  0.81813931  0.28894000  0.47795263  1.0
  O  O7244  1  0.81813931  0.45560667  0.47795263  1.0
  O  O7245  1  0.81813931  0.62227333  0.47795263  1.0
  O  O7246  1  0.81813931  0.78894000  0.47795263  1.0
  O  O7247  1  0.81813931  0.95560667  0.47795263  1.0
  O  O7248  1  0.90904840  0.12227333  0.47795263  1.0
  O  O7249  1  0.90904840  0.28894000  0.47795263  1.0
  O  O7250  1  0.90904840  0.45560667  0.47795263  1.0
  O  O7251  1  0.90904840  0.62227333  0.47795263  1.0
  O  O7252  1  0.90904840  0.78894000  0.47795263  1.0
  O  O7253  1  0.90904840  0.95560667  0.47795263  1.0
  O  O7254  1  0.99995749  0.12227333  0.47795263  1.0
  O  O7255  1  0.99995749  0.28894000  0.47795263  1.0
  O  O7256  1  0.99995749  0.45560667  0.47795263  1.0
  O  O7257  1  0.99995749  0.62227333  0.47795263  1.0
  O  O7258  1  0.99995749  0.78894000  0.47795263  1.0
  O  O7259  1  0.99995749  0.95560667  0.47795263  1.0
  O  O7260  1  0.01281294  0.06081276  0.42633830  1.0
  O  O7261  1  0.01281294  0.22747943  0.42633830  1.0
  O  O7262  1  0.01281294  0.39414610  0.42633830  1.0
  O  O7263  1  0.01281294  0.56081276  0.42633830  1.0
  O  O7264  1  0.01281294  0.72747943  0.42633830  1.0
  O  O7265  1  0.01281294  0.89414610  0.42633830  1.0
  O  O7266  1  0.10372203  0.06081276  0.42633830  1.0
  O  O7267  1  0.10372203  0.22747943  0.42633830  1.0
  O  O7268  1  0.10372203  0.39414610  0.42633830  1.0
  O  O7269  1  0.10372203  0.56081276  0.42633830  1.0
  O  O7270  1  0.10372203  0.72747943  0.42633830  1.0
  O  O7271  1  0.10372203  0.89414610  0.42633830  1.0
  O  O7272  1  0.19463112  0.06081276  0.42633830  1.0
  O  O7273  1  0.19463112  0.22747943  0.42633830  1.0
  O  O7274  1  0.19463112  0.39414610  0.42633830  1.0
  O  O7275  1  0.19463112  0.56081276  0.42633830  1.0
  O  O7276  1  0.19463112  0.72747943  0.42633830  1.0
  O  O7277  1  0.19463112  0.89414610  0.42633830  1.0
  O  O7278  1  0.28554021  0.06081276  0.42633830  1.0
  O  O7279  1  0.28554021  0.22747943  0.42633830  1.0
  O  O7280  1  0.28554021  0.39414610  0.42633830  1.0
  O  O7281  1  0.28554021  0.56081276  0.42633830  1.0
  O  O7282  1  0.28554021  0.72747943  0.42633830  1.0
  O  O7283  1  0.28554021  0.89414610  0.42633830  1.0
  O  O7284  1  0.37644930  0.06081276  0.42633830  1.0
  O  O7285  1  0.37644930  0.22747943  0.42633830  1.0
  O  O7286  1  0.37644930  0.39414610  0.42633830  1.0
  O  O7287  1  0.37644930  0.56081276  0.42633830  1.0
  O  O7288  1  0.37644930  0.72747943  0.42633830  1.0
  O  O7289  1  0.37644930  0.89414610  0.42633830  1.0
  O  O7290  1  0.46735840  0.06081276  0.42633830  1.0
  O  O7291  1  0.46735840  0.22747943  0.42633830  1.0
  O  O7292  1  0.46735840  0.39414610  0.42633830  1.0
  O  O7293  1  0.46735840  0.56081276  0.42633830  1.0
  O  O7294  1  0.46735840  0.72747943  0.42633830  1.0
  O  O7295  1  0.46735840  0.89414610  0.42633830  1.0
  O  O7296  1  0.55826749  0.06081276  0.42633830  1.0
  O  O7297  1  0.55826749  0.22747943  0.42633830  1.0
  O  O7298  1  0.55826749  0.39414610  0.42633830  1.0
  O  O7299  1  0.55826749  0.56081276  0.42633830  1.0
  O  O7300  1  0.55826749  0.72747943  0.42633830  1.0
  O  O7301  1  0.55826749  0.89414610  0.42633830  1.0
  O  O7302  1  0.64917658  0.06081276  0.42633830  1.0
  O  O7303  1  0.64917658  0.22747943  0.42633830  1.0
  O  O7304  1  0.64917658  0.39414610  0.42633830  1.0
  O  O7305  1  0.64917658  0.56081276  0.42633830  1.0
  O  O7306  1  0.64917658  0.72747943  0.42633830  1.0
  O  O7307  1  0.64917658  0.89414610  0.42633830  1.0
  O  O7308  1  0.74008567  0.06081276  0.42633830  1.0
  O  O7309  1  0.74008567  0.22747943  0.42633830  1.0
  O  O7310  1  0.74008567  0.39414610  0.42633830  1.0
  O  O7311  1  0.74008567  0.56081276  0.42633830  1.0
  O  O7312  1  0.74008567  0.72747943  0.42633830  1.0
  O  O7313  1  0.74008567  0.89414610  0.42633830  1.0
  O  O7314  1  0.83099476  0.06081276  0.42633830  1.0
  O  O7315  1  0.83099476  0.22747943  0.42633830  1.0
  O  O7316  1  0.83099476  0.39414610  0.42633830  1.0
  O  O7317  1  0.83099476  0.56081276  0.42633830  1.0
  O  O7318  1  0.83099476  0.72747943  0.42633830  1.0
  O  O7319  1  0.83099476  0.89414610  0.42633830  1.0
  O  O7320  1  0.92190385  0.06081276  0.42633830  1.0
  O  O7321  1  0.92190385  0.22747943  0.42633830  1.0
  O  O7322  1  0.92190385  0.39414610  0.42633830  1.0
  O  O7323  1  0.92190385  0.56081276  0.42633830  1.0
  O  O7324  1  0.92190385  0.72747943  0.42633830  1.0
  O  O7325  1  0.92190385  0.89414610  0.42633830  1.0
  O  O7326  1  0.05826749  0.04890800  0.49776687  1.0
  O  O7327  1  0.05826749  0.21557467  0.49776687  1.0
  O  O7328  1  0.05826749  0.38224133  0.49776687  1.0
  O  O7329  1  0.05826749  0.54890800  0.49776687  1.0
  O  O7330  1  0.05826749  0.71557467  0.49776687  1.0
  O  O7331  1  0.05826749  0.88224133  0.49776687  1.0
  O  O7332  1  0.14917658  0.04890800  0.49776687  1.0
  O  O7333  1  0.14917658  0.21557467  0.49776687  1.0
  O  O7334  1  0.14917658  0.38224133  0.49776687  1.0
  O  O7335  1  0.14917658  0.54890800  0.49776687  1.0
  O  O7336  1  0.14917658  0.71557467  0.49776687  1.0
  O  O7337  1  0.14917658  0.88224133  0.49776687  1.0
  O  O7338  1  0.24008567  0.04890800  0.49776687  1.0
  O  O7339  1  0.24008567  0.21557467  0.49776687  1.0
  O  O7340  1  0.24008567  0.38224133  0.49776687  1.0
  O  O7341  1  0.24008567  0.54890800  0.49776687  1.0
  O  O7342  1  0.24008567  0.71557467  0.49776687  1.0
  O  O7343  1  0.24008567  0.88224133  0.49776687  1.0
  O  O7344  1  0.33099476  0.04890800  0.49776687  1.0
  O  O7345  1  0.33099476  0.21557467  0.49776687  1.0
  O  O7346  1  0.33099476  0.38224133  0.49776687  1.0
  O  O7347  1  0.33099476  0.54890800  0.49776687  1.0
  O  O7348  1  0.33099476  0.71557467  0.49776687  1.0
  O  O7349  1  0.33099476  0.88224133  0.49776687  1.0
  O  O7350  1  0.42190385  0.04890800  0.49776687  1.0
  O  O7351  1  0.42190385  0.21557467  0.49776687  1.0
  O  O7352  1  0.42190385  0.38224133  0.49776687  1.0
  O  O7353  1  0.42190385  0.54890800  0.49776687  1.0
  O  O7354  1  0.42190385  0.71557467  0.49776687  1.0
  O  O7355  1  0.42190385  0.88224133  0.49776687  1.0
  O  O7356  1  0.51281294  0.04890800  0.49776687  1.0
  O  O7357  1  0.51281294  0.21557467  0.49776687  1.0
  O  O7358  1  0.51281294  0.38224133  0.49776687  1.0
  O  O7359  1  0.51281294  0.54890800  0.49776687  1.0
  O  O7360  1  0.51281294  0.71557467  0.49776687  1.0
  O  O7361  1  0.51281294  0.88224133  0.49776687  1.0
  O  O7362  1  0.60372203  0.04890800  0.49776687  1.0
  O  O7363  1  0.60372203  0.21557467  0.49776687  1.0
  O  O7364  1  0.60372203  0.38224133  0.49776687  1.0
  O  O7365  1  0.60372203  0.54890800  0.49776687  1.0
  O  O7366  1  0.60372203  0.71557467  0.49776687  1.0
  O  O7367  1  0.60372203  0.88224133  0.49776687  1.0
  O  O7368  1  0.69463112  0.04890800  0.49776687  1.0
  O  O7369  1  0.69463112  0.21557467  0.49776687  1.0
  O  O7370  1  0.69463112  0.38224133  0.49776687  1.0
  O  O7371  1  0.69463112  0.54890800  0.49776687  1.0
  O  O7372  1  0.69463112  0.71557467  0.49776687  1.0
  O  O7373  1  0.69463112  0.88224133  0.49776687  1.0
  O  O7374  1  0.78554021  0.04890800  0.49776687  1.0
  O  O7375  1  0.78554021  0.21557467  0.49776687  1.0
  O  O7376  1  0.78554021  0.38224133  0.49776687  1.0
  O  O7377  1  0.78554021  0.54890800  0.49776687  1.0
  O  O7378  1  0.78554021  0.71557467  0.49776687  1.0
  O  O7379  1  0.78554021  0.88224133  0.49776687  1.0
  O  O7380  1  0.87644930  0.04890800  0.49776687  1.0
  O  O7381  1  0.87644930  0.21557467  0.49776687  1.0
  O  O7382  1  0.87644930  0.38224133  0.49776687  1.0
  O  O7383  1  0.87644930  0.54890800  0.49776687  1.0
  O  O7384  1  0.87644930  0.71557467  0.49776687  1.0
  O  O7385  1  0.87644930  0.88224133  0.49776687  1.0
  O  O7386  1  0.96735840  0.04890800  0.49776687  1.0
  O  O7387  1  0.96735840  0.21557467  0.49776687  1.0
  O  O7388  1  0.96735840  0.38224133  0.49776687  1.0
  O  O7389  1  0.96735840  0.54890800  0.49776687  1.0
  O  O7390  1  0.96735840  0.71557467  0.49776687  1.0
  O  O7391  1  0.96735840  0.88224133  0.49776687  1.0
  O  O7392  1  0.01895556  0.10581503  0.43547784  1.0
  O  O7393  1  0.01895556  0.27248169  0.43547784  1.0
  O  O7394  1  0.01895556  0.43914836  0.43547784  1.0
  O  O7395  1  0.01895556  0.60581503  0.43547784  1.0
  O  O7396  1  0.01895556  0.77248169  0.43547784  1.0
  O  O7397  1  0.01895556  0.93914836  0.43547784  1.0
  O  O7398  1  0.10986465  0.10581503  0.43547784  1.0
  O  O7399  1  0.10986465  0.27248169  0.43547784  1.0
  O  O7400  1  0.10986465  0.43914836  0.43547784  1.0
  O  O7401  1  0.10986465  0.60581503  0.43547784  1.0
  O  O7402  1  0.10986465  0.77248169  0.43547784  1.0
  O  O7403  1  0.10986465  0.93914836  0.43547784  1.0
  O  O7404  1  0.20077374  0.10581503  0.43547784  1.0
  O  O7405  1  0.20077374  0.27248169  0.43547784  1.0
  O  O7406  1  0.20077374  0.43914836  0.43547784  1.0
  O  O7407  1  0.20077374  0.60581503  0.43547784  1.0
  O  O7408  1  0.20077374  0.77248169  0.43547784  1.0
  O  O7409  1  0.20077374  0.93914836  0.43547784  1.0
  O  O7410  1  0.29168283  0.10581503  0.43547784  1.0
  O  O7411  1  0.29168283  0.27248169  0.43547784  1.0
  O  O7412  1  0.29168283  0.43914836  0.43547784  1.0
  O  O7413  1  0.29168283  0.60581503  0.43547784  1.0
  O  O7414  1  0.29168283  0.77248169  0.43547784  1.0
  O  O7415  1  0.29168283  0.93914836  0.43547784  1.0
  O  O7416  1  0.38259192  0.10581503  0.43547784  1.0
  O  O7417  1  0.38259192  0.27248169  0.43547784  1.0
  O  O7418  1  0.38259192  0.43914836  0.43547784  1.0
  O  O7419  1  0.38259192  0.60581503  0.43547784  1.0
  O  O7420  1  0.38259192  0.77248169  0.43547784  1.0
  O  O7421  1  0.38259192  0.93914836  0.43547784  1.0
  O  O7422  1  0.47350101  0.10581503  0.43547784  1.0
  O  O7423  1  0.47350101  0.27248169  0.43547784  1.0
  O  O7424  1  0.47350101  0.43914836  0.43547784  1.0
  O  O7425  1  0.47350101  0.60581503  0.43547784  1.0
  O  O7426  1  0.47350101  0.77248169  0.43547784  1.0
  O  O7427  1  0.47350101  0.93914836  0.43547784  1.0
  O  O7428  1  0.56441010  0.10581503  0.43547784  1.0
  O  O7429  1  0.56441010  0.27248169  0.43547784  1.0
  O  O7430  1  0.56441010  0.43914836  0.43547784  1.0
  O  O7431  1  0.56441010  0.60581503  0.43547784  1.0
  O  O7432  1  0.56441010  0.77248169  0.43547784  1.0
  O  O7433  1  0.56441010  0.93914836  0.43547784  1.0
  O  O7434  1  0.65531920  0.10581503  0.43547784  1.0
  O  O7435  1  0.65531920  0.27248169  0.43547784  1.0
  O  O7436  1  0.65531920  0.43914836  0.43547784  1.0
  O  O7437  1  0.65531920  0.60581503  0.43547784  1.0
  O  O7438  1  0.65531920  0.77248169  0.43547784  1.0
  O  O7439  1  0.65531920  0.93914836  0.43547784  1.0
  O  O7440  1  0.74622829  0.10581503  0.43547784  1.0
  O  O7441  1  0.74622829  0.27248169  0.43547784  1.0
  O  O7442  1  0.74622829  0.43914836  0.43547784  1.0
  O  O7443  1  0.74622829  0.60581503  0.43547784  1.0
  O  O7444  1  0.74622829  0.77248169  0.43547784  1.0
  O  O7445  1  0.74622829  0.93914836  0.43547784  1.0
  O  O7446  1  0.83713738  0.10581503  0.43547784  1.0
  O  O7447  1  0.83713738  0.27248169  0.43547784  1.0
  O  O7448  1  0.83713738  0.43914836  0.43547784  1.0
  O  O7449  1  0.83713738  0.60581503  0.43547784  1.0
  O  O7450  1  0.83713738  0.77248169  0.43547784  1.0
  O  O7451  1  0.83713738  0.93914836  0.43547784  1.0
  O  O7452  1  0.92804647  0.10581503  0.43547784  1.0
  O  O7453  1  0.92804647  0.27248169  0.43547784  1.0
  O  O7454  1  0.92804647  0.43914836  0.43547784  1.0
  O  O7455  1  0.92804647  0.60581503  0.43547784  1.0
  O  O7456  1  0.92804647  0.77248169  0.43547784  1.0
  O  O7457  1  0.92804647  0.93914836  0.43547784  1.0
  O  O7458  1  0.06441010  0.11771979  0.36404927  1.0
  O  O7459  1  0.06441010  0.28438645  0.36404927  1.0
  O  O7460  1  0.06441010  0.45105312  0.36404927  1.0
  O  O7461  1  0.06441010  0.61771979  0.36404927  1.0
  O  O7462  1  0.06441010  0.78438645  0.36404927  1.0
  O  O7463  1  0.06441010  0.95105312  0.36404927  1.0
  O  O7464  1  0.15531920  0.11771979  0.36404927  1.0
  O  O7465  1  0.15531920  0.28438645  0.36404927  1.0
  O  O7466  1  0.15531920  0.45105312  0.36404927  1.0
  O  O7467  1  0.15531920  0.61771979  0.36404927  1.0
  O  O7468  1  0.15531920  0.78438645  0.36404927  1.0
  O  O7469  1  0.15531920  0.95105312  0.36404927  1.0
  O  O7470  1  0.24622829  0.11771979  0.36404927  1.0
  O  O7471  1  0.24622829  0.28438645  0.36404927  1.0
  O  O7472  1  0.24622829  0.45105312  0.36404927  1.0
  O  O7473  1  0.24622829  0.61771979  0.36404927  1.0
  O  O7474  1  0.24622829  0.78438645  0.36404927  1.0
  O  O7475  1  0.24622829  0.95105312  0.36404927  1.0
  O  O7476  1  0.33713738  0.11771979  0.36404927  1.0
  O  O7477  1  0.33713738  0.28438645  0.36404927  1.0
  O  O7478  1  0.33713738  0.45105312  0.36404927  1.0
  O  O7479  1  0.33713738  0.61771979  0.36404927  1.0
  O  O7480  1  0.33713738  0.78438645  0.36404927  1.0
  O  O7481  1  0.33713738  0.95105312  0.36404927  1.0
  O  O7482  1  0.42804647  0.11771979  0.36404927  1.0
  O  O7483  1  0.42804647  0.28438645  0.36404927  1.0
  O  O7484  1  0.42804647  0.45105312  0.36404927  1.0
  O  O7485  1  0.42804647  0.61771979  0.36404927  1.0
  O  O7486  1  0.42804647  0.78438645  0.36404927  1.0
  O  O7487  1  0.42804647  0.95105312  0.36404927  1.0
  O  O7488  1  0.51895556  0.11771979  0.36404927  1.0
  O  O7489  1  0.51895556  0.28438645  0.36404927  1.0
  O  O7490  1  0.51895556  0.45105312  0.36404927  1.0
  O  O7491  1  0.51895556  0.61771979  0.36404927  1.0
  O  O7492  1  0.51895556  0.78438645  0.36404927  1.0
  O  O7493  1  0.51895556  0.95105312  0.36404927  1.0
  O  O7494  1  0.60986465  0.11771979  0.36404927  1.0
  O  O7495  1  0.60986465  0.28438645  0.36404927  1.0
  O  O7496  1  0.60986465  0.45105312  0.36404927  1.0
  O  O7497  1  0.60986465  0.61771979  0.36404927  1.0
  O  O7498  1  0.60986465  0.78438645  0.36404927  1.0
  O  O7499  1  0.60986465  0.95105312  0.36404927  1.0
  O  O7500  1  0.70077374  0.11771979  0.36404927  1.0
  O  O7501  1  0.70077374  0.28438645  0.36404927  1.0
  O  O7502  1  0.70077374  0.45105312  0.36404927  1.0
  O  O7503  1  0.70077374  0.61771979  0.36404927  1.0
  O  O7504  1  0.70077374  0.78438645  0.36404927  1.0
  O  O7505  1  0.70077374  0.95105312  0.36404927  1.0
  O  O7506  1  0.79168283  0.11771979  0.36404927  1.0
  O  O7507  1  0.79168283  0.28438645  0.36404927  1.0
  O  O7508  1  0.79168283  0.45105312  0.36404927  1.0
  O  O7509  1  0.79168283  0.61771979  0.36404927  1.0
  O  O7510  1  0.79168283  0.78438645  0.36404927  1.0
  O  O7511  1  0.79168283  0.95105312  0.36404927  1.0
  O  O7512  1  0.88259192  0.11771979  0.36404927  1.0
  O  O7513  1  0.88259192  0.28438645  0.36404927  1.0
  O  O7514  1  0.88259192  0.45105312  0.36404927  1.0
  O  O7515  1  0.88259192  0.61771979  0.36404927  1.0
  O  O7516  1  0.88259192  0.78438645  0.36404927  1.0
  O  O7517  1  0.88259192  0.95105312  0.36404927  1.0
  O  O7518  1  0.97350101  0.11771979  0.36404927  1.0
  O  O7519  1  0.97350101  0.28438645  0.36404927  1.0
  O  O7520  1  0.97350101  0.45105312  0.36404927  1.0
  O  O7521  1  0.97350101  0.61771979  0.36404927  1.0
  O  O7522  1  0.97350101  0.78438645  0.36404927  1.0
  O  O7523  1  0.97350101  0.95105312  0.36404927  1.0
  O  O7524  1  0.06505624  0.10518788  0.43534952  1.0
  O  O7525  1  0.06505624  0.27185455  0.43534952  1.0
  O  O7526  1  0.06505624  0.43852121  0.43534952  1.0
  O  O7527  1  0.06505624  0.60518788  0.43534952  1.0
  O  O7528  1  0.06505624  0.77185455  0.43534952  1.0
  O  O7529  1  0.06505624  0.93852121  0.43534952  1.0
  O  O7530  1  0.15596534  0.10518788  0.43534952  1.0
  O  O7531  1  0.15596534  0.27185455  0.43534952  1.0
  O  O7532  1  0.15596534  0.43852121  0.43534952  1.0
  O  O7533  1  0.15596534  0.60518788  0.43534952  1.0
  O  O7534  1  0.15596534  0.77185455  0.43534952  1.0
  O  O7535  1  0.15596534  0.93852121  0.43534952  1.0
  O  O7536  1  0.24687443  0.10518788  0.43534952  1.0
  O  O7537  1  0.24687443  0.27185455  0.43534952  1.0
  O  O7538  1  0.24687443  0.43852121  0.43534952  1.0
  O  O7539  1  0.24687443  0.60518788  0.43534952  1.0
  O  O7540  1  0.24687443  0.77185455  0.43534952  1.0
  O  O7541  1  0.24687443  0.93852121  0.43534952  1.0
  O  O7542  1  0.33778352  0.10518788  0.43534952  1.0
  O  O7543  1  0.33778352  0.27185455  0.43534952  1.0
  O  O7544  1  0.33778352  0.43852121  0.43534952  1.0
  O  O7545  1  0.33778352  0.60518788  0.43534952  1.0
  O  O7546  1  0.33778352  0.77185455  0.43534952  1.0
  O  O7547  1  0.33778352  0.93852121  0.43534952  1.0
  O  O7548  1  0.42869261  0.10518788  0.43534952  1.0
  O  O7549  1  0.42869261  0.27185455  0.43534952  1.0
  O  O7550  1  0.42869261  0.43852121  0.43534952  1.0
  O  O7551  1  0.42869261  0.60518788  0.43534952  1.0
  O  O7552  1  0.42869261  0.77185455  0.43534952  1.0
  O  O7553  1  0.42869261  0.93852121  0.43534952  1.0
  O  O7554  1  0.51960170  0.10518788  0.43534952  1.0
  O  O7555  1  0.51960170  0.27185455  0.43534952  1.0
  O  O7556  1  0.51960170  0.43852121  0.43534952  1.0
  O  O7557  1  0.51960170  0.60518788  0.43534952  1.0
  O  O7558  1  0.51960170  0.77185455  0.43534952  1.0
  O  O7559  1  0.51960170  0.93852121  0.43534952  1.0
  O  O7560  1  0.61051079  0.10518788  0.43534952  1.0
  O  O7561  1  0.61051079  0.27185455  0.43534952  1.0
  O  O7562  1  0.61051079  0.43852121  0.43534952  1.0
  O  O7563  1  0.61051079  0.60518788  0.43534952  1.0
  O  O7564  1  0.61051079  0.77185455  0.43534952  1.0
  O  O7565  1  0.61051079  0.93852121  0.43534952  1.0
  O  O7566  1  0.70141988  0.10518788  0.43534952  1.0
  O  O7567  1  0.70141988  0.27185455  0.43534952  1.0
  O  O7568  1  0.70141988  0.43852121  0.43534952  1.0
  O  O7569  1  0.70141988  0.60518788  0.43534952  1.0
  O  O7570  1  0.70141988  0.77185455  0.43534952  1.0
  O  O7571  1  0.70141988  0.93852121  0.43534952  1.0
  O  O7572  1  0.79232897  0.10518788  0.43534952  1.0
  O  O7573  1  0.79232897  0.27185455  0.43534952  1.0
  O  O7574  1  0.79232897  0.43852121  0.43534952  1.0
  O  O7575  1  0.79232897  0.60518788  0.43534952  1.0
  O  O7576  1  0.79232897  0.77185455  0.43534952  1.0
  O  O7577  1  0.79232897  0.93852121  0.43534952  1.0
  O  O7578  1  0.88323806  0.10518788  0.43534952  1.0
  O  O7579  1  0.88323806  0.27185455  0.43534952  1.0
  O  O7580  1  0.88323806  0.43852121  0.43534952  1.0
  O  O7581  1  0.88323806  0.60518788  0.43534952  1.0
  O  O7582  1  0.88323806  0.77185455  0.43534952  1.0
  O  O7583  1  0.88323806  0.93852121  0.43534952  1.0
  O  O7584  1  0.97414715  0.10518788  0.43534952  1.0
  O  O7585  1  0.97414715  0.27185455  0.43534952  1.0
  O  O7586  1  0.97414715  0.43852121  0.43534952  1.0
  O  O7587  1  0.97414715  0.60518788  0.43534952  1.0
  O  O7588  1  0.97414715  0.77185455  0.43534952  1.0
  O  O7589  1  0.97414715  0.93852121  0.43534952  1.0
  O  O7590  1  0.01960170  0.11709264  0.36392095  1.0
  O  O7591  1  0.01960170  0.28375931  0.36392095  1.0
  O  O7592  1  0.01960170  0.45042597  0.36392095  1.0
  O  O7593  1  0.01960170  0.61709264  0.36392095  1.0
  O  O7594  1  0.01960170  0.78375931  0.36392095  1.0
  O  O7595  1  0.01960170  0.95042597  0.36392095  1.0
  O  O7596  1  0.11051079  0.11709264  0.36392095  1.0
  O  O7597  1  0.11051079  0.28375931  0.36392095  1.0
  O  O7598  1  0.11051079  0.45042597  0.36392095  1.0
  O  O7599  1  0.11051079  0.61709264  0.36392095  1.0
  O  O7600  1  0.11051079  0.78375931  0.36392095  1.0
  O  O7601  1  0.11051079  0.95042597  0.36392095  1.0
  O  O7602  1  0.20141988  0.11709264  0.36392095  1.0
  O  O7603  1  0.20141988  0.28375931  0.36392095  1.0
  O  O7604  1  0.20141988  0.45042597  0.36392095  1.0
  O  O7605  1  0.20141988  0.61709264  0.36392095  1.0
  O  O7606  1  0.20141988  0.78375931  0.36392095  1.0
  O  O7607  1  0.20141988  0.95042597  0.36392095  1.0
  O  O7608  1  0.29232897  0.11709264  0.36392095  1.0
  O  O7609  1  0.29232897  0.28375931  0.36392095  1.0
  O  O7610  1  0.29232897  0.45042597  0.36392095  1.0
  O  O7611  1  0.29232897  0.61709264  0.36392095  1.0
  O  O7612  1  0.29232897  0.78375931  0.36392095  1.0
  O  O7613  1  0.29232897  0.95042597  0.36392095  1.0
  O  O7614  1  0.38323806  0.11709264  0.36392095  1.0
  O  O7615  1  0.38323806  0.28375931  0.36392095  1.0
  O  O7616  1  0.38323806  0.45042597  0.36392095  1.0
  O  O7617  1  0.38323806  0.61709264  0.36392095  1.0
  O  O7618  1  0.38323806  0.78375931  0.36392095  1.0
  O  O7619  1  0.38323806  0.95042597  0.36392095  1.0
  O  O7620  1  0.47414715  0.11709264  0.36392095  1.0
  O  O7621  1  0.47414715  0.28375931  0.36392095  1.0
  O  O7622  1  0.47414715  0.45042597  0.36392095  1.0
  O  O7623  1  0.47414715  0.61709264  0.36392095  1.0
  O  O7624  1  0.47414715  0.78375931  0.36392095  1.0
  O  O7625  1  0.47414715  0.95042597  0.36392095  1.0
  O  O7626  1  0.56505624  0.11709264  0.36392095  1.0
  O  O7627  1  0.56505624  0.28375931  0.36392095  1.0
  O  O7628  1  0.56505624  0.45042597  0.36392095  1.0
  O  O7629  1  0.56505624  0.61709264  0.36392095  1.0
  O  O7630  1  0.56505624  0.78375931  0.36392095  1.0
  O  O7631  1  0.56505624  0.95042597  0.36392095  1.0
  O  O7632  1  0.65596534  0.11709264  0.36392095  1.0
  O  O7633  1  0.65596534  0.28375931  0.36392095  1.0
  O  O7634  1  0.65596534  0.45042597  0.36392095  1.0
  O  O7635  1  0.65596534  0.61709264  0.36392095  1.0
  O  O7636  1  0.65596534  0.78375931  0.36392095  1.0
  O  O7637  1  0.65596534  0.95042597  0.36392095  1.0
  O  O7638  1  0.74687443  0.11709264  0.36392095  1.0
  O  O7639  1  0.74687443  0.28375931  0.36392095  1.0
  O  O7640  1  0.74687443  0.45042597  0.36392095  1.0
  O  O7641  1  0.74687443  0.61709264  0.36392095  1.0
  O  O7642  1  0.74687443  0.78375931  0.36392095  1.0
  O  O7643  1  0.74687443  0.95042597  0.36392095  1.0
  O  O7644  1  0.83778352  0.11709264  0.36392095  1.0
  O  O7645  1  0.83778352  0.28375931  0.36392095  1.0
  O  O7646  1  0.83778352  0.45042597  0.36392095  1.0
  O  O7647  1  0.83778352  0.61709264  0.36392095  1.0
  O  O7648  1  0.83778352  0.78375931  0.36392095  1.0
  O  O7649  1  0.83778352  0.95042597  0.36392095  1.0
  O  O7650  1  0.92869261  0.11709264  0.36392095  1.0
  O  O7651  1  0.92869261  0.28375931  0.36392095  1.0
  O  O7652  1  0.92869261  0.45042597  0.36392095  1.0
  O  O7653  1  0.92869261  0.61709264  0.36392095  1.0
  O  O7654  1  0.92869261  0.78375931  0.36392095  1.0
  O  O7655  1  0.92869261  0.95042597  0.36392095  1.0
  O  O7656  1  0.05890792  0.06018914  0.42620900  1.0
  O  O7657  1  0.05890792  0.22685581  0.42620900  1.0
  O  O7658  1  0.05890792  0.39352247  0.42620900  1.0
  O  O7659  1  0.05890792  0.56018914  0.42620900  1.0
  O  O7660  1  0.05890792  0.72685581  0.42620900  1.0
  O  O7661  1  0.05890792  0.89352247  0.42620900  1.0
  O  O7662  1  0.14981701  0.06018914  0.42620900  1.0
  O  O7663  1  0.14981701  0.22685581  0.42620900  1.0
  O  O7664  1  0.14981701  0.39352247  0.42620900  1.0
  O  O7665  1  0.14981701  0.56018914  0.42620900  1.0
  O  O7666  1  0.14981701  0.72685581  0.42620900  1.0
  O  O7667  1  0.14981701  0.89352247  0.42620900  1.0
  O  O7668  1  0.24072610  0.06018914  0.42620900  1.0
  O  O7669  1  0.24072610  0.22685581  0.42620900  1.0
  O  O7670  1  0.24072610  0.39352247  0.42620900  1.0
  O  O7671  1  0.24072610  0.56018914  0.42620900  1.0
  O  O7672  1  0.24072610  0.72685581  0.42620900  1.0
  O  O7673  1  0.24072610  0.89352247  0.42620900  1.0
  O  O7674  1  0.33163519  0.06018914  0.42620900  1.0
  O  O7675  1  0.33163519  0.22685581  0.42620900  1.0
  O  O7676  1  0.33163519  0.39352247  0.42620900  1.0
  O  O7677  1  0.33163519  0.56018914  0.42620900  1.0
  O  O7678  1  0.33163519  0.72685581  0.42620900  1.0
  O  O7679  1  0.33163519  0.89352247  0.42620900  1.0
  O  O7680  1  0.42254428  0.06018914  0.42620900  1.0
  O  O7681  1  0.42254428  0.22685581  0.42620900  1.0
  O  O7682  1  0.42254428  0.39352247  0.42620900  1.0
  O  O7683  1  0.42254428  0.56018914  0.42620900  1.0
  O  O7684  1  0.42254428  0.72685581  0.42620900  1.0
  O  O7685  1  0.42254428  0.89352247  0.42620900  1.0
  O  O7686  1  0.51345338  0.06018914  0.42620900  1.0
  O  O7687  1  0.51345337  0.22685581  0.42620900  1.0
  O  O7688  1  0.51345337  0.39352247  0.42620900  1.0
  O  O7689  1  0.51345337  0.56018914  0.42620900  1.0
  O  O7690  1  0.51345337  0.72685581  0.42620900  1.0
  O  O7691  1  0.51345337  0.89352247  0.42620900  1.0
  O  O7692  1  0.60436247  0.06018914  0.42620900  1.0
  O  O7693  1  0.60436247  0.22685581  0.42620900  1.0
  O  O7694  1  0.60436247  0.39352247  0.42620900  1.0
  O  O7695  1  0.60436247  0.56018914  0.42620900  1.0
  O  O7696  1  0.60436247  0.72685581  0.42620900  1.0
  O  O7697  1  0.60436247  0.89352247  0.42620900  1.0
  O  O7698  1  0.69527156  0.06018914  0.42620900  1.0
  O  O7699  1  0.69527156  0.22685581  0.42620900  1.0
  O  O7700  1  0.69527156  0.39352247  0.42620900  1.0
  O  O7701  1  0.69527156  0.56018914  0.42620900  1.0
  O  O7702  1  0.69527156  0.72685581  0.42620900  1.0
  O  O7703  1  0.69527156  0.89352247  0.42620900  1.0
  O  O7704  1  0.78618065  0.06018914  0.42620900  1.0
  O  O7705  1  0.78618065  0.22685581  0.42620900  1.0
  O  O7706  1  0.78618065  0.39352247  0.42620900  1.0
  O  O7707  1  0.78618065  0.56018914  0.42620900  1.0
  O  O7708  1  0.78618065  0.72685581  0.42620900  1.0
  O  O7709  1  0.78618065  0.89352247  0.42620900  1.0
  O  O7710  1  0.87708974  0.06018914  0.42620900  1.0
  O  O7711  1  0.87708974  0.22685581  0.42620900  1.0
  O  O7712  1  0.87708974  0.39352247  0.42620900  1.0
  O  O7713  1  0.87708974  0.56018914  0.42620900  1.0
  O  O7714  1  0.87708974  0.72685581  0.42620900  1.0
  O  O7715  1  0.87708974  0.89352247  0.42620900  1.0
  O  O7716  1  0.96799883  0.06018914  0.42620900  1.0
  O  O7717  1  0.96799883  0.22685581  0.42620900  1.0
  O  O7718  1  0.96799883  0.39352247  0.42620900  1.0
  O  O7719  1  0.96799883  0.56018914  0.42620900  1.0
  O  O7720  1  0.96799883  0.72685581  0.42620900  1.0
  O  O7721  1  0.96799883  0.89352247  0.42620900  1.0
  O  O7722  1  0.01345337  0.04828438  0.49763757  1.0
  O  O7723  1  0.01345337  0.21495105  0.49763757  1.0
  O  O7724  1  0.01345337  0.38161771  0.49763757  1.0
  O  O7725  1  0.01345337  0.54828438  0.49763757  1.0
  O  O7726  1  0.01345337  0.71495105  0.49763757  1.0
  O  O7727  1  0.01345337  0.88161771  0.49763757  1.0
  O  O7728  1  0.10436247  0.04828438  0.49763757  1.0
  O  O7729  1  0.10436247  0.21495105  0.49763757  1.0
  O  O7730  1  0.10436247  0.38161771  0.49763757  1.0
  O  O7731  1  0.10436247  0.54828438  0.49763757  1.0
  O  O7732  1  0.10436247  0.71495105  0.49763757  1.0
  O  O7733  1  0.10436247  0.88161771  0.49763757  1.0
  O  O7734  1  0.19527156  0.04828438  0.49763757  1.0
  O  O7735  1  0.19527156  0.21495105  0.49763757  1.0
  O  O7736  1  0.19527156  0.38161771  0.49763757  1.0
  O  O7737  1  0.19527156  0.54828438  0.49763757  1.0
  O  O7738  1  0.19527156  0.71495105  0.49763757  1.0
  O  O7739  1  0.19527156  0.88161771  0.49763757  1.0
  O  O7740  1  0.28618065  0.04828438  0.49763757  1.0
  O  O7741  1  0.28618065  0.21495105  0.49763757  1.0
  O  O7742  1  0.28618065  0.38161771  0.49763757  1.0
  O  O7743  1  0.28618065  0.54828438  0.49763757  1.0
  O  O7744  1  0.28618065  0.71495105  0.49763757  1.0
  O  O7745  1  0.28618065  0.88161771  0.49763757  1.0
  O  O7746  1  0.37708974  0.04828438  0.49763757  1.0
  O  O7747  1  0.37708974  0.21495105  0.49763757  1.0
  O  O7748  1  0.37708974  0.38161771  0.49763757  1.0
  O  O7749  1  0.37708974  0.54828438  0.49763757  1.0
  O  O7750  1  0.37708974  0.71495105  0.49763757  1.0
  O  O7751  1  0.37708974  0.88161771  0.49763757  1.0
  O  O7752  1  0.46799883  0.04828438  0.49763757  1.0
  O  O7753  1  0.46799883  0.21495105  0.49763757  1.0
  O  O7754  1  0.46799883  0.38161771  0.49763757  1.0
  O  O7755  1  0.46799883  0.54828438  0.49763757  1.0
  O  O7756  1  0.46799883  0.71495105  0.49763757  1.0
  O  O7757  1  0.46799883  0.88161771  0.49763757  1.0
  O  O7758  1  0.55890792  0.04828438  0.49763757  1.0
  O  O7759  1  0.55890792  0.21495105  0.49763757  1.0
  O  O7760  1  0.55890792  0.38161771  0.49763757  1.0
  O  O7761  1  0.55890792  0.54828438  0.49763757  1.0
  O  O7762  1  0.55890792  0.71495105  0.49763757  1.0
  O  O7763  1  0.55890792  0.88161771  0.49763757  1.0
  O  O7764  1  0.64981701  0.04828438  0.49763757  1.0
  O  O7765  1  0.64981701  0.21495105  0.49763757  1.0
  O  O7766  1  0.64981701  0.38161771  0.49763757  1.0
  O  O7767  1  0.64981701  0.54828438  0.49763757  1.0
  O  O7768  1  0.64981701  0.71495105  0.49763757  1.0
  O  O7769  1  0.64981701  0.88161771  0.49763757  1.0
  O  O7770  1  0.74072610  0.04828438  0.49763757  1.0
  O  O7771  1  0.74072610  0.21495105  0.49763757  1.0
  O  O7772  1  0.74072610  0.38161771  0.49763757  1.0
  O  O7773  1  0.74072610  0.54828438  0.49763757  1.0
  O  O7774  1  0.74072610  0.71495105  0.49763757  1.0
  O  O7775  1  0.74072610  0.88161771  0.49763757  1.0
  O  O7776  1  0.83163519  0.04828438  0.49763757  1.0
  O  O7777  1  0.83163519  0.21495105  0.49763757  1.0
  O  O7778  1  0.83163519  0.38161771  0.49763757  1.0
  O  O7779  1  0.83163519  0.54828438  0.49763757  1.0
  O  O7780  1  0.83163519  0.71495105  0.49763757  1.0
  O  O7781  1  0.83163519  0.88161771  0.49763757  1.0
  O  O7782  1  0.92254428  0.04828438  0.49763757  1.0
  O  O7783  1  0.92254428  0.21495105  0.49763757  1.0
  O  O7784  1  0.92254428  0.38161771  0.49763757  1.0
  O  O7785  1  0.92254428  0.54828438  0.49763757  1.0
  O  O7786  1  0.92254428  0.71495105  0.49763757  1.0
  O  O7787  1  0.92254428  0.88161771  0.49763757  1.0
  O  O7788  1  0.05045578  0.01341057  0.41543867  1.0
  O  O7789  1  0.05045578  0.18007723  0.41543867  1.0
  O  O7790  1  0.05045578  0.34674390  0.41543867  1.0
  O  O7791  1  0.05045578  0.51341057  0.41543867  1.0
  O  O7792  1  0.05045578  0.68007723  0.41543867  1.0
  O  O7793  1  0.05045578  0.84674390  0.41543867  1.0
  O  O7794  1  0.14136487  0.01341057  0.41543867  1.0
  O  O7795  1  0.14136487  0.18007723  0.41543867  1.0
  O  O7796  1  0.14136487  0.34674390  0.41543867  1.0
  O  O7797  1  0.14136487  0.51341057  0.41543867  1.0
  O  O7798  1  0.14136487  0.68007723  0.41543867  1.0
  O  O7799  1  0.14136487  0.84674390  0.41543867  1.0
  O  O7800  1  0.23227396  0.01341057  0.41543867  1.0
  O  O7801  1  0.23227396  0.18007723  0.41543867  1.0
  O  O7802  1  0.23227396  0.34674390  0.41543867  1.0
  O  O7803  1  0.23227396  0.51341057  0.41543867  1.0
  O  O7804  1  0.23227396  0.68007723  0.41543867  1.0
  O  O7805  1  0.23227396  0.84674390  0.41543867  1.0
  O  O7806  1  0.32318306  0.01341057  0.41543867  1.0
  O  O7807  1  0.32318306  0.18007723  0.41543867  1.0
  O  O7808  1  0.32318306  0.34674390  0.41543867  1.0
  O  O7809  1  0.32318306  0.51341057  0.41543867  1.0
  O  O7810  1  0.32318306  0.68007723  0.41543867  1.0
  O  O7811  1  0.32318306  0.84674390  0.41543867  1.0
  O  O7812  1  0.41409215  0.01341057  0.41543867  1.0
  O  O7813  1  0.41409215  0.18007723  0.41543867  1.0
  O  O7814  1  0.41409215  0.34674390  0.41543867  1.0
  O  O7815  1  0.41409215  0.51341057  0.41543867  1.0
  O  O7816  1  0.41409215  0.68007723  0.41543867  1.0
  O  O7817  1  0.41409215  0.84674390  0.41543867  1.0
  O  O7818  1  0.50500124  0.01341057  0.41543867  1.0
  O  O7819  1  0.50500124  0.18007723  0.41543867  1.0
  O  O7820  1  0.50500124  0.34674390  0.41543867  1.0
  O  O7821  1  0.50500124  0.51341057  0.41543867  1.0
  O  O7822  1  0.50500124  0.68007723  0.41543867  1.0
  O  O7823  1  0.50500124  0.84674390  0.41543867  1.0
  O  O7824  1  0.59591033  0.01341057  0.41543867  1.0
  O  O7825  1  0.59591033  0.18007723  0.41543867  1.0
  O  O7826  1  0.59591033  0.34674390  0.41543867  1.0
  O  O7827  1  0.59591033  0.51341057  0.41543867  1.0
  O  O7828  1  0.59591033  0.68007723  0.41543867  1.0
  O  O7829  1  0.59591033  0.84674390  0.41543867  1.0
  O  O7830  1  0.68681942  0.01341057  0.41543867  1.0
  O  O7831  1  0.68681942  0.18007723  0.41543867  1.0
  O  O7832  1  0.68681942  0.34674390  0.41543867  1.0
  O  O7833  1  0.68681942  0.51341057  0.41543867  1.0
  O  O7834  1  0.68681942  0.68007723  0.41543867  1.0
  O  O7835  1  0.68681942  0.84674390  0.41543867  1.0
  O  O7836  1  0.77772851  0.01341057  0.41543867  1.0
  O  O7837  1  0.77772851  0.18007723  0.41543867  1.0
  O  O7838  1  0.77772851  0.34674390  0.41543867  1.0
  O  O7839  1  0.77772851  0.51341057  0.41543867  1.0
  O  O7840  1  0.77772851  0.68007723  0.41543867  1.0
  O  O7841  1  0.77772851  0.84674390  0.41543867  1.0
  O  O7842  1  0.86863760  0.01341057  0.41543867  1.0
  O  O7843  1  0.86863760  0.18007723  0.41543867  1.0
  O  O7844  1  0.86863760  0.34674390  0.41543867  1.0
  O  O7845  1  0.86863760  0.51341057  0.41543867  1.0
  O  O7846  1  0.86863760  0.68007723  0.41543867  1.0
  O  O7847  1  0.86863760  0.84674390  0.41543867  1.0
  O  O7848  1  0.95954669  0.01341057  0.41543867  1.0
  O  O7849  1  0.95954669  0.18007723  0.41543867  1.0
  O  O7850  1  0.95954669  0.34674390  0.41543867  1.0
  O  O7851  1  0.95954669  0.51341057  0.41543867  1.0
  O  O7852  1  0.95954669  0.68007723  0.41543867  1.0
  O  O7853  1  0.95954669  0.84674390  0.41543867  1.0
  O  O7854  1  0.00500124  0.00150581  0.48686724  1.0
  O  O7855  1  0.00500124  0.16817247  0.48686724  1.0
  O  O7856  1  0.00500124  0.33483914  0.48686724  1.0
  O  O7857  1  0.00500124  0.50150581  0.48686724  1.0
  O  O7858  1  0.00500124  0.66817247  0.48686724  1.0
  O  O7859  1  0.00500124  0.83483914  0.48686724  1.0
  O  O7860  1  0.09591033  0.00150581  0.48686724  1.0
  O  O7861  1  0.09591033  0.16817247  0.48686724  1.0
  O  O7862  1  0.09591033  0.33483914  0.48686724  1.0
  O  O7863  1  0.09591033  0.50150581  0.48686724  1.0
  O  O7864  1  0.09591033  0.66817247  0.48686724  1.0
  O  O7865  1  0.09591033  0.83483914  0.48686724  1.0
  O  O7866  1  0.18681942  0.00150581  0.48686724  1.0
  O  O7867  1  0.18681942  0.16817247  0.48686724  1.0
  O  O7868  1  0.18681942  0.33483914  0.48686724  1.0
  O  O7869  1  0.18681942  0.50150581  0.48686724  1.0
  O  O7870  1  0.18681942  0.66817247  0.48686724  1.0
  O  O7871  1  0.18681942  0.83483914  0.48686724  1.0
  O  O7872  1  0.27772851  0.00150581  0.48686724  1.0
  O  O7873  1  0.27772851  0.16817247  0.48686724  1.0
  O  O7874  1  0.27772851  0.33483914  0.48686724  1.0
  O  O7875  1  0.27772851  0.50150581  0.48686724  1.0
  O  O7876  1  0.27772851  0.66817247  0.48686724  1.0
  O  O7877  1  0.27772851  0.83483914  0.48686724  1.0
  O  O7878  1  0.36863760  0.00150581  0.48686724  1.0
  O  O7879  1  0.36863760  0.16817247  0.48686724  1.0
  O  O7880  1  0.36863760  0.33483914  0.48686724  1.0
  O  O7881  1  0.36863760  0.50150581  0.48686724  1.0
  O  O7882  1  0.36863760  0.66817247  0.48686724  1.0
  O  O7883  1  0.36863760  0.83483914  0.48686724  1.0
  O  O7884  1  0.45954669  0.00150581  0.48686724  1.0
  O  O7885  1  0.45954669  0.16817247  0.48686724  1.0
  O  O7886  1  0.45954669  0.33483914  0.48686724  1.0
  O  O7887  1  0.45954669  0.50150581  0.48686724  1.0
  O  O7888  1  0.45954669  0.66817247  0.48686724  1.0
  O  O7889  1  0.45954669  0.83483914  0.48686724  1.0
  O  O7890  1  0.55045578  0.00150581  0.48686724  1.0
  O  O7891  1  0.55045578  0.16817247  0.48686724  1.0
  O  O7892  1  0.55045578  0.33483914  0.48686724  1.0
  O  O7893  1  0.55045578  0.50150581  0.48686724  1.0
  O  O7894  1  0.55045578  0.66817247  0.48686724  1.0
  O  O7895  1  0.55045578  0.83483914  0.48686724  1.0
  O  O7896  1  0.64136487  0.00150581  0.48686724  1.0
  O  O7897  1  0.64136487  0.16817247  0.48686724  1.0
  O  O7898  1  0.64136487  0.33483914  0.48686724  1.0
  O  O7899  1  0.64136487  0.50150581  0.48686724  1.0
  O  O7900  1  0.64136487  0.66817247  0.48686724  1.0
  O  O7901  1  0.64136487  0.83483914  0.48686724  1.0
  O  O7902  1  0.73227396  0.00150581  0.48686724  1.0
  O  O7903  1  0.73227396  0.16817247  0.48686724  1.0
  O  O7904  1  0.73227397  0.33483914  0.48686724  1.0
  O  O7905  1  0.73227397  0.50150581  0.48686724  1.0
  O  O7906  1  0.73227396  0.66817247  0.48686724  1.0
  O  O7907  1  0.73227396  0.83483914  0.48686724  1.0
  O  O7908  1  0.82318306  0.00150581  0.48686724  1.0
  O  O7909  1  0.82318306  0.16817247  0.48686724  1.0
  O  O7910  1  0.82318306  0.33483914  0.48686724  1.0
  O  O7911  1  0.82318306  0.50150581  0.48686724  1.0
  O  O7912  1  0.82318306  0.66817247  0.48686724  1.0
  O  O7913  1  0.82318306  0.83483914  0.48686724  1.0
  O  O7914  1  0.91409215  0.00150581  0.48686724  1.0
  O  O7915  1  0.91409215  0.16817247  0.48686724  1.0
  O  O7916  1  0.91409215  0.33483914  0.48686724  1.0
  O  O7917  1  0.91409215  0.50150581  0.48686724  1.0
  O  O7918  1  0.91409215  0.66817247  0.48686724  1.0
  O  O7919  1  0.91409215  0.83483914  0.48686724  1.0
  O  O7920  1  0.03888059  0.07650539  0.46650405  1.0
  O  O7921  1  0.03888059  0.24317206  0.46650405  1.0
  O  O7922  1  0.03888059  0.40983873  0.46650405  1.0
  O  O7923  1  0.03888059  0.57650539  0.46650405  1.0
  O  O7924  1  0.03888059  0.74317206  0.46650405  1.0
  O  O7925  1  0.03888059  0.90983873  0.46650405  1.0
  O  O7926  1  0.12978969  0.07650539  0.46650405  1.0
  O  O7927  1  0.12978969  0.24317206  0.46650405  1.0
  O  O7928  1  0.12978969  0.40983873  0.46650405  1.0
  O  O7929  1  0.12978969  0.57650539  0.46650405  1.0
  O  O7930  1  0.12978969  0.74317206  0.46650405  1.0
  O  O7931  1  0.12978969  0.90983873  0.46650405  1.0
  O  O7932  1  0.22069878  0.07650539  0.46650405  1.0
  O  O7933  1  0.22069878  0.24317206  0.46650405  1.0
  O  O7934  1  0.22069878  0.40983873  0.46650405  1.0
  O  O7935  1  0.22069878  0.57650539  0.46650405  1.0
  O  O7936  1  0.22069878  0.74317206  0.46650405  1.0
  O  O7937  1  0.22069878  0.90983873  0.46650405  1.0
  O  O7938  1  0.31160787  0.07650539  0.46650405  1.0
  O  O7939  1  0.31160787  0.24317206  0.46650405  1.0
  O  O7940  1  0.31160787  0.40983873  0.46650405  1.0
  O  O7941  1  0.31160787  0.57650539  0.46650405  1.0
  O  O7942  1  0.31160787  0.74317206  0.46650405  1.0
  O  O7943  1  0.31160787  0.90983873  0.46650405  1.0
  O  O7944  1  0.40251696  0.07650539  0.46650405  1.0
  O  O7945  1  0.40251696  0.24317206  0.46650405  1.0
  O  O7946  1  0.40251696  0.40983873  0.46650405  1.0
  O  O7947  1  0.40251696  0.57650539  0.46650405  1.0
  O  O7948  1  0.40251696  0.74317206  0.46650405  1.0
  O  O7949  1  0.40251696  0.90983873  0.46650405  1.0
  O  O7950  1  0.49342605  0.07650539  0.46650405  1.0
  O  O7951  1  0.49342605  0.24317206  0.46650405  1.0
  O  O7952  1  0.49342605  0.40983873  0.46650405  1.0
  O  O7953  1  0.49342605  0.57650539  0.46650405  1.0
  O  O7954  1  0.49342605  0.74317206  0.46650405  1.0
  O  O7955  1  0.49342605  0.90983873  0.46650405  1.0
  O  O7956  1  0.58433514  0.07650539  0.46650405  1.0
  O  O7957  1  0.58433514  0.24317206  0.46650405  1.0
  O  O7958  1  0.58433514  0.40983873  0.46650405  1.0
  O  O7959  1  0.58433514  0.57650539  0.46650405  1.0
  O  O7960  1  0.58433514  0.74317206  0.46650405  1.0
  O  O7961  1  0.58433514  0.90983873  0.46650405  1.0
  O  O7962  1  0.67524423  0.07650539  0.46650405  1.0
  O  O7963  1  0.67524423  0.24317206  0.46650405  1.0
  O  O7964  1  0.67524423  0.40983873  0.46650405  1.0
  O  O7965  1  0.67524423  0.57650539  0.46650405  1.0
  O  O7966  1  0.67524423  0.74317206  0.46650405  1.0
  O  O7967  1  0.67524423  0.90983873  0.46650405  1.0
  O  O7968  1  0.76615332  0.07650539  0.46650405  1.0
  O  O7969  1  0.76615332  0.24317206  0.46650405  1.0
  O  O7970  1  0.76615332  0.40983873  0.46650405  1.0
  O  O7971  1  0.76615332  0.57650539  0.46650405  1.0
  O  O7972  1  0.76615332  0.74317206  0.46650405  1.0
  O  O7973  1  0.76615332  0.90983873  0.46650405  1.0
  O  O7974  1  0.85706241  0.07650539  0.46650405  1.0
  O  O7975  1  0.85706241  0.24317206  0.46650405  1.0
  O  O7976  1  0.85706241  0.40983873  0.46650405  1.0
  O  O7977  1  0.85706241  0.57650539  0.46650405  1.0
  O  O7978  1  0.85706241  0.74317206  0.46650405  1.0
  O  O7979  1  0.85706241  0.90983873  0.46650405  1.0
  O  O7980  1  0.94797150  0.07650539  0.46650405  1.0
  O  O7981  1  0.94797150  0.24317206  0.46650405  1.0
  O  O7982  1  0.94797150  0.40983873  0.46650405  1.0
  O  O7983  1  0.94797150  0.57650539  0.46650405  1.0
  O  O7984  1  0.94797150  0.74317206  0.46650405  1.0
  O  O7985  1  0.94797150  0.90983873  0.46650405  1.0
  O  O7986  1  0.08433514  0.08841015  0.39507547  1.0
  O  O7987  1  0.08433514  0.25507682  0.39507547  1.0
  O  O7988  1  0.08433514  0.42174349  0.39507547  1.0
  O  O7989  1  0.08433514  0.58841015  0.39507547  1.0
  O  O7990  1  0.08433514  0.75507682  0.39507547  1.0
  O  O7991  1  0.08433514  0.92174349  0.39507547  1.0
  O  O7992  1  0.17524423  0.08841015  0.39507547  1.0
  O  O7993  1  0.17524423  0.25507682  0.39507547  1.0
  O  O7994  1  0.17524423  0.42174349  0.39507547  1.0
  O  O7995  1  0.17524423  0.58841015  0.39507547  1.0
  O  O7996  1  0.17524423  0.75507682  0.39507547  1.0
  O  O7997  1  0.17524423  0.92174349  0.39507547  1.0
  O  O7998  1  0.26615332  0.08841015  0.39507547  1.0
  O  O7999  1  0.26615332  0.25507682  0.39507547  1.0
  O  O8000  1  0.26615332  0.42174349  0.39507547  1.0
  O  O8001  1  0.26615332  0.58841015  0.39507547  1.0
  O  O8002  1  0.26615332  0.75507682  0.39507547  1.0
  O  O8003  1  0.26615332  0.92174349  0.39507547  1.0
  O  O8004  1  0.35706241  0.08841015  0.39507547  1.0
  O  O8005  1  0.35706241  0.25507682  0.39507547  1.0
  O  O8006  1  0.35706241  0.42174349  0.39507547  1.0
  O  O8007  1  0.35706241  0.58841015  0.39507547  1.0
  O  O8008  1  0.35706241  0.75507682  0.39507547  1.0
  O  O8009  1  0.35706241  0.92174349  0.39507547  1.0
  O  O8010  1  0.44797150  0.08841015  0.39507547  1.0
  O  O8011  1  0.44797150  0.25507682  0.39507547  1.0
  O  O8012  1  0.44797150  0.42174349  0.39507547  1.0
  O  O8013  1  0.44797150  0.58841015  0.39507547  1.0
  O  O8014  1  0.44797150  0.75507682  0.39507547  1.0
  O  O8015  1  0.44797150  0.92174349  0.39507547  1.0
  O  O8016  1  0.53888059  0.08841015  0.39507547  1.0
  O  O8017  1  0.53888059  0.25507682  0.39507547  1.0
  O  O8018  1  0.53888059  0.42174349  0.39507547  1.0
  O  O8019  1  0.53888059  0.58841015  0.39507547  1.0
  O  O8020  1  0.53888059  0.75507682  0.39507547  1.0
  O  O8021  1  0.53888059  0.92174349  0.39507547  1.0
  O  O8022  1  0.62978969  0.08841015  0.39507547  1.0
  O  O8023  1  0.62978969  0.25507682  0.39507547  1.0
  O  O8024  1  0.62978969  0.42174349  0.39507547  1.0
  O  O8025  1  0.62978969  0.58841015  0.39507547  1.0
  O  O8026  1  0.62978969  0.75507682  0.39507547  1.0
  O  O8027  1  0.62978969  0.92174349  0.39507547  1.0
  O  O8028  1  0.72069878  0.08841015  0.39507547  1.0
  O  O8029  1  0.72069878  0.25507682  0.39507547  1.0
  O  O8030  1  0.72069878  0.42174349  0.39507547  1.0
  O  O8031  1  0.72069878  0.58841015  0.39507547  1.0
  O  O8032  1  0.72069878  0.75507682  0.39507547  1.0
  O  O8033  1  0.72069878  0.92174349  0.39507547  1.0
  O  O8034  1  0.81160787  0.08841015  0.39507547  1.0
  O  O8035  1  0.81160787  0.25507682  0.39507547  1.0
  O  O8036  1  0.81160787  0.42174349  0.39507547  1.0
  O  O8037  1  0.81160787  0.58841015  0.39507547  1.0
  O  O8038  1  0.81160787  0.75507682  0.39507547  1.0
  O  O8039  1  0.81160787  0.92174349  0.39507547  1.0
  O  O8040  1  0.90251696  0.08841015  0.39507547  1.0
  O  O8041  1  0.90251696  0.25507682  0.39507547  1.0
  O  O8042  1  0.90251696  0.42174349  0.39507547  1.0
  O  O8043  1  0.90251696  0.58841015  0.39507547  1.0
  O  O8044  1  0.90251696  0.75507682  0.39507547  1.0
  O  O8045  1  0.90251696  0.92174349  0.39507547  1.0
  O  O8046  1  0.99342605  0.08841015  0.39507547  1.0
  O  O8047  1  0.99342605  0.25507682  0.39507547  1.0
  O  O8048  1  0.99342605  0.42174349  0.39507547  1.0
  O  O8049  1  0.99342605  0.58841015  0.39507547  1.0
  O  O8050  1  0.99342605  0.75507682  0.39507547  1.0
  O  O8051  1  0.99342605  0.92174349  0.39507547  1.0
  O  O8052  1  0.07037231  0.15086343  0.44570997  1.0
  O  O8053  1  0.07037231  0.31753010  0.44570997  1.0
  O  O8054  1  0.07037231  0.48419677  0.44570997  1.0
  O  O8055  1  0.07037231  0.65086343  0.44570997  1.0
  O  O8056  1  0.07037231  0.81753010  0.44570997  1.0
  O  O8057  1  0.07037231  0.98419677  0.44570997  1.0
  O  O8058  1  0.16128140  0.15086343  0.44570997  1.0
  O  O8059  1  0.16128140  0.31753010  0.44570997  1.0
  O  O8060  1  0.16128140  0.48419677  0.44570997  1.0
  O  O8061  1  0.16128140  0.65086343  0.44570997  1.0
  O  O8062  1  0.16128140  0.81753010  0.44570997  1.0
  O  O8063  1  0.16128140  0.98419677  0.44570997  1.0
  O  O8064  1  0.25219049  0.15086343  0.44570997  1.0
  O  O8065  1  0.25219049  0.31753010  0.44570997  1.0
  O  O8066  1  0.25219049  0.48419677  0.44570997  1.0
  O  O8067  1  0.25219049  0.65086343  0.44570997  1.0
  O  O8068  1  0.25219049  0.81753010  0.44570997  1.0
  O  O8069  1  0.25219049  0.98419677  0.44570997  1.0
  O  O8070  1  0.34309958  0.15086343  0.44570997  1.0
  O  O8071  1  0.34309958  0.31753010  0.44570997  1.0
  O  O8072  1  0.34309958  0.48419677  0.44570997  1.0
  O  O8073  1  0.34309958  0.65086343  0.44570997  1.0
  O  O8074  1  0.34309958  0.81753010  0.44570997  1.0
  O  O8075  1  0.34309958  0.98419677  0.44570997  1.0
  O  O8076  1  0.43400867  0.15086343  0.44570997  1.0
  O  O8077  1  0.43400867  0.31753010  0.44570997  1.0
  O  O8078  1  0.43400867  0.48419677  0.44570997  1.0
  O  O8079  1  0.43400867  0.65086343  0.44570997  1.0
  O  O8080  1  0.43400867  0.81753010  0.44570997  1.0
  O  O8081  1  0.43400867  0.98419677  0.44570997  1.0
  O  O8082  1  0.52491776  0.15086343  0.44570997  1.0
  O  O8083  1  0.52491776  0.31753010  0.44570997  1.0
  O  O8084  1  0.52491776  0.48419677  0.44570997  1.0
  O  O8085  1  0.52491776  0.65086343  0.44570997  1.0
  O  O8086  1  0.52491776  0.81753010  0.44570997  1.0
  O  O8087  1  0.52491776  0.98419677  0.44570997  1.0
  O  O8088  1  0.61582685  0.15086343  0.44570997  1.0
  O  O8089  1  0.61582685  0.31753010  0.44570997  1.0
  O  O8090  1  0.61582685  0.48419677  0.44570997  1.0
  O  O8091  1  0.61582685  0.65086343  0.44570997  1.0
  O  O8092  1  0.61582685  0.81753010  0.44570997  1.0
  O  O8093  1  0.61582685  0.98419677  0.44570997  1.0
  O  O8094  1  0.70673594  0.15086343  0.44570997  1.0
  O  O8095  1  0.70673594  0.31753010  0.44570997  1.0
  O  O8096  1  0.70673594  0.48419677  0.44570997  1.0
  O  O8097  1  0.70673594  0.65086343  0.44570997  1.0
  O  O8098  1  0.70673594  0.81753010  0.44570997  1.0
  O  O8099  1  0.70673594  0.98419677  0.44570997  1.0
  O  O8100  1  0.79764504  0.15086343  0.44570997  1.0
  O  O8101  1  0.79764504  0.31753010  0.44570997  1.0
  O  O8102  1  0.79764504  0.48419677  0.44570997  1.0
  O  O8103  1  0.79764504  0.65086343  0.44570997  1.0
  O  O8104  1  0.79764504  0.81753010  0.44570997  1.0
  O  O8105  1  0.79764504  0.98419677  0.44570997  1.0
  O  O8106  1  0.88855413  0.15086343  0.44570997  1.0
  O  O8107  1  0.88855413  0.31753010  0.44570997  1.0
  O  O8108  1  0.88855413  0.48419677  0.44570997  1.0
  O  O8109  1  0.88855413  0.65086343  0.44570997  1.0
  O  O8110  1  0.88855413  0.81753010  0.44570997  1.0
  O  O8111  1  0.88855413  0.98419677  0.44570997  1.0
  O  O8112  1  0.97946322  0.15086343  0.44570997  1.0
  O  O8113  1  0.97946322  0.31753010  0.44570997  1.0
  O  O8114  1  0.97946322  0.48419677  0.44570997  1.0
  O  O8115  1  0.97946322  0.65086343  0.44570997  1.0
  O  O8116  1  0.97946322  0.81753010  0.44570997  1.0
  O  O8117  1  0.97946322  0.98419677  0.44570997  1.0
  O  O8118  1  0.02491776  0.16276820  0.37428140  1.0
  O  O8119  1  0.02491776  0.32943486  0.37428140  1.0
  O  O8120  1  0.02491776  0.49610153  0.37428140  1.0
  O  O8121  1  0.02491776  0.66276820  0.37428140  1.0
  O  O8122  1  0.02491776  0.82943486  0.37428140  1.0
  O  O8123  1  0.02491776  0.99610153  0.37428140  1.0
  O  O8124  1  0.11582685  0.16276820  0.37428140  1.0
  O  O8125  1  0.11582685  0.32943486  0.37428140  1.0
  O  O8126  1  0.11582685  0.49610153  0.37428140  1.0
  O  O8127  1  0.11582685  0.66276820  0.37428140  1.0
  O  O8128  1  0.11582685  0.82943486  0.37428140  1.0
  O  O8129  1  0.11582685  0.99610153  0.37428140  1.0
  O  O8130  1  0.20673594  0.16276820  0.37428140  1.0
  O  O8131  1  0.20673594  0.32943486  0.37428140  1.0
  O  O8132  1  0.20673594  0.49610153  0.37428140  1.0
  O  O8133  1  0.20673594  0.66276820  0.37428140  1.0
  O  O8134  1  0.20673594  0.82943486  0.37428140  1.0
  O  O8135  1  0.20673594  0.99610153  0.37428140  1.0
  O  O8136  1  0.29764504  0.16276820  0.37428140  1.0
  O  O8137  1  0.29764504  0.32943486  0.37428140  1.0
  O  O8138  1  0.29764504  0.49610153  0.37428140  1.0
  O  O8139  1  0.29764504  0.66276820  0.37428140  1.0
  O  O8140  1  0.29764504  0.82943486  0.37428140  1.0
  O  O8141  1  0.29764504  0.99610153  0.37428140  1.0
  O  O8142  1  0.38855413  0.16276820  0.37428140  1.0
  O  O8143  1  0.38855413  0.32943486  0.37428140  1.0
  O  O8144  1  0.38855413  0.49610153  0.37428140  1.0
  O  O8145  1  0.38855413  0.66276820  0.37428140  1.0
  O  O8146  1  0.38855413  0.82943486  0.37428140  1.0
  O  O8147  1  0.38855413  0.99610153  0.37428140  1.0
  O  O8148  1  0.47946322  0.16276820  0.37428140  1.0
  O  O8149  1  0.47946322  0.32943486  0.37428140  1.0
  O  O8150  1  0.47946322  0.49610153  0.37428140  1.0
  O  O8151  1  0.47946322  0.66276820  0.37428140  1.0
  O  O8152  1  0.47946322  0.82943486  0.37428140  1.0
  O  O8153  1  0.47946322  0.99610153  0.37428140  1.0
  O  O8154  1  0.57037231  0.16276820  0.37428140  1.0
  O  O8155  1  0.57037231  0.32943486  0.37428140  1.0
  O  O8156  1  0.57037231  0.49610153  0.37428140  1.0
  O  O8157  1  0.57037231  0.66276820  0.37428140  1.0
  O  O8158  1  0.57037231  0.82943486  0.37428140  1.0
  O  O8159  1  0.57037231  0.99610153  0.37428140  1.0
  O  O8160  1  0.66128140  0.16276820  0.37428140  1.0
  O  O8161  1  0.66128140  0.32943486  0.37428140  1.0
  O  O8162  1  0.66128140  0.49610153  0.37428140  1.0
  O  O8163  1  0.66128140  0.66276820  0.37428140  1.0
  O  O8164  1  0.66128140  0.82943486  0.37428140  1.0
  O  O8165  1  0.66128140  0.99610153  0.37428140  1.0
  O  O8166  1  0.75219049  0.16276820  0.37428140  1.0
  O  O8167  1  0.75219049  0.32943486  0.37428140  1.0
  O  O8168  1  0.75219049  0.49610153  0.37428140  1.0
  O  O8169  1  0.75219049  0.66276820  0.37428140  1.0
  O  O8170  1  0.75219049  0.82943486  0.37428140  1.0
  O  O8171  1  0.75219049  0.99610153  0.37428140  1.0
  O  O8172  1  0.84309958  0.16276820  0.37428140  1.0
  O  O8173  1  0.84309958  0.32943486  0.37428140  1.0
  O  O8174  1  0.84309958  0.49610153  0.37428140  1.0
  O  O8175  1  0.84309958  0.66276820  0.37428140  1.0
  O  O8176  1  0.84309958  0.82943486  0.37428140  1.0
  O  O8177  1  0.84309958  0.99610153  0.37428140  1.0
  O  O8178  1  0.93400867  0.16276820  0.37428140  1.0
  O  O8179  1  0.93400867  0.32943486  0.37428140  1.0
  O  O8180  1  0.93400867  0.49610153  0.37428140  1.0
  O  O8181  1  0.93400867  0.66276820  0.37428140  1.0
  O  O8182  1  0.93400867  0.82943486  0.37428140  1.0
  O  O8183  1  0.93400867  0.99610153  0.37428140  1.0
  O  O8184  1  0.04458126  0.12250433  0.47947924  1.0
  O  O8185  1  0.04458126  0.28917100  0.47947924  1.0
  O  O8186  1  0.04458126  0.45583766  0.47947924  1.0
  O  O8187  1  0.04458126  0.62250433  0.47947924  1.0
  O  O8188  1  0.04458126  0.78917100  0.47947924  1.0
  O  O8189  1  0.04458126  0.95583766  0.47947924  1.0
  O  O8190  1  0.13549035  0.12250433  0.47947924  1.0
  O  O8191  1  0.13549035  0.28917100  0.47947924  1.0
  O  O8192  1  0.13549035  0.45583766  0.47947924  1.0
  O  O8193  1  0.13549035  0.62250433  0.47947924  1.0
  O  O8194  1  0.13549035  0.78917100  0.47947924  1.0
  O  O8195  1  0.13549035  0.95583766  0.47947924  1.0
  O  O8196  1  0.22639944  0.12250433  0.47947924  1.0
  O  O8197  1  0.22639944  0.28917100  0.47947924  1.0
  O  O8198  1  0.22639944  0.45583766  0.47947924  1.0
  O  O8199  1  0.22639944  0.62250433  0.47947924  1.0
  O  O8200  1  0.22639944  0.78917100  0.47947924  1.0
  O  O8201  1  0.22639944  0.95583766  0.47947924  1.0
  O  O8202  1  0.31730853  0.12250433  0.47947924  1.0
  O  O8203  1  0.31730853  0.28917100  0.47947924  1.0
  O  O8204  1  0.31730853  0.45583766  0.47947924  1.0
  O  O8205  1  0.31730853  0.62250433  0.47947924  1.0
  O  O8206  1  0.31730853  0.78917100  0.47947924  1.0
  O  O8207  1  0.31730853  0.95583766  0.47947924  1.0
  O  O8208  1  0.40821763  0.12250433  0.47947924  1.0
  O  O8209  1  0.40821763  0.28917100  0.47947924  1.0
  O  O8210  1  0.40821763  0.45583766  0.47947924  1.0
  O  O8211  1  0.40821763  0.62250433  0.47947924  1.0
  O  O8212  1  0.40821762  0.78917100  0.47947924  1.0
  O  O8213  1  0.40821763  0.95583766  0.47947924  1.0
  O  O8214  1  0.49912672  0.12250433  0.47947924  1.0
  O  O8215  1  0.49912672  0.28917100  0.47947924  1.0
  O  O8216  1  0.49912672  0.45583766  0.47947924  1.0
  O  O8217  1  0.49912672  0.62250433  0.47947924  1.0
  O  O8218  1  0.49912672  0.78917100  0.47947924  1.0
  O  O8219  1  0.49912672  0.95583766  0.47947924  1.0
  O  O8220  1  0.59003581  0.12250433  0.47947924  1.0
  O  O8221  1  0.59003581  0.28917100  0.47947924  1.0
  O  O8222  1  0.59003581  0.45583766  0.47947924  1.0
  O  O8223  1  0.59003581  0.62250433  0.47947924  1.0
  O  O8224  1  0.59003581  0.78917100  0.47947924  1.0
  O  O8225  1  0.59003581  0.95583766  0.47947924  1.0
  O  O8226  1  0.68094490  0.12250433  0.47947924  1.0
  O  O8227  1  0.68094490  0.28917100  0.47947924  1.0
  O  O8228  1  0.68094490  0.45583766  0.47947924  1.0
  O  O8229  1  0.68094490  0.62250433  0.47947924  1.0
  O  O8230  1  0.68094490  0.78917100  0.47947924  1.0
  O  O8231  1  0.68094490  0.95583766  0.47947924  1.0
  O  O8232  1  0.77185399  0.12250433  0.47947924  1.0
  O  O8233  1  0.77185399  0.28917100  0.47947924  1.0
  O  O8234  1  0.77185399  0.45583766  0.47947924  1.0
  O  O8235  1  0.77185399  0.62250433  0.47947924  1.0
  O  O8236  1  0.77185399  0.78917100  0.47947924  1.0
  O  O8237  1  0.77185399  0.95583766  0.47947924  1.0
  O  O8238  1  0.86276308  0.12250433  0.47947924  1.0
  O  O8239  1  0.86276308  0.28917100  0.47947924  1.0
  O  O8240  1  0.86276308  0.45583766  0.47947924  1.0
  O  O8241  1  0.86276308  0.62250433  0.47947924  1.0
  O  O8242  1  0.86276308  0.78917100  0.47947924  1.0
  O  O8243  1  0.86276308  0.95583766  0.47947924  1.0
  O  O8244  1  0.95367217  0.12250433  0.47947924  1.0
  O  O8245  1  0.95367217  0.28917100  0.47947924  1.0
  O  O8246  1  0.95367217  0.45583766  0.47947924  1.0
  O  O8247  1  0.95367217  0.62250433  0.47947924  1.0
  O  O8248  1  0.95367217  0.78917100  0.47947924  1.0
  O  O8249  1  0.95367217  0.95583766  0.47947924  1.0
  O  O8250  1  0.09003581  0.13440909  0.40805067  1.0
  O  O8251  1  0.09003581  0.30107576  0.40805067  1.0
  O  O8252  1  0.09003581  0.46774243  0.40805067  1.0
  O  O8253  1  0.09003581  0.63440909  0.40805067  1.0
  O  O8254  1  0.09003581  0.80107576  0.40805067  1.0
  O  O8255  1  0.09003581  0.96774243  0.40805067  1.0
  O  O8256  1  0.18094490  0.13440909  0.40805067  1.0
  O  O8257  1  0.18094490  0.30107576  0.40805067  1.0
  O  O8258  1  0.18094490  0.46774243  0.40805067  1.0
  O  O8259  1  0.18094490  0.63440909  0.40805067  1.0
  O  O8260  1  0.18094490  0.80107576  0.40805067  1.0
  O  O8261  1  0.18094490  0.96774243  0.40805067  1.0
  O  O8262  1  0.27185399  0.13440909  0.40805067  1.0
  O  O8263  1  0.27185399  0.30107576  0.40805067  1.0
  O  O8264  1  0.27185399  0.46774243  0.40805067  1.0
  O  O8265  1  0.27185399  0.63440909  0.40805067  1.0
  O  O8266  1  0.27185399  0.80107576  0.40805067  1.0
  O  O8267  1  0.27185399  0.96774243  0.40805067  1.0
  O  O8268  1  0.36276308  0.13440909  0.40805067  1.0
  O  O8269  1  0.36276308  0.30107576  0.40805067  1.0
  O  O8270  1  0.36276308  0.46774243  0.40805067  1.0
  O  O8271  1  0.36276308  0.63440909  0.40805067  1.0
  O  O8272  1  0.36276308  0.80107576  0.40805067  1.0
  O  O8273  1  0.36276308  0.96774243  0.40805067  1.0
  O  O8274  1  0.45367217  0.13440909  0.40805067  1.0
  O  O8275  1  0.45367217  0.30107576  0.40805067  1.0
  O  O8276  1  0.45367217  0.46774243  0.40805067  1.0
  O  O8277  1  0.45367217  0.63440909  0.40805067  1.0
  O  O8278  1  0.45367217  0.80107576  0.40805067  1.0
  O  O8279  1  0.45367217  0.96774243  0.40805067  1.0
  O  O8280  1  0.54458126  0.13440909  0.40805067  1.0
  O  O8281  1  0.54458126  0.30107576  0.40805067  1.0
  O  O8282  1  0.54458126  0.46774243  0.40805067  1.0
  O  O8283  1  0.54458126  0.63440909  0.40805067  1.0
  O  O8284  1  0.54458126  0.80107576  0.40805067  1.0
  O  O8285  1  0.54458126  0.96774243  0.40805067  1.0
  O  O8286  1  0.63549035  0.13440909  0.40805067  1.0
  O  O8287  1  0.63549035  0.30107576  0.40805067  1.0
  O  O8288  1  0.63549035  0.46774243  0.40805067  1.0
  O  O8289  1  0.63549035  0.63440909  0.40805067  1.0
  O  O8290  1  0.63549035  0.80107576  0.40805067  1.0
  O  O8291  1  0.63549035  0.96774243  0.40805067  1.0
  O  O8292  1  0.72639944  0.13440909  0.40805067  1.0
  O  O8293  1  0.72639944  0.30107576  0.40805067  1.0
  O  O8294  1  0.72639944  0.46774243  0.40805067  1.0
  O  O8295  1  0.72639944  0.63440909  0.40805067  1.0
  O  O8296  1  0.72639944  0.80107576  0.40805067  1.0
  O  O8297  1  0.72639944  0.96774243  0.40805067  1.0
  O  O8298  1  0.81730853  0.13440909  0.40805067  1.0
  O  O8299  1  0.81730853  0.30107576  0.40805067  1.0
  O  O8300  1  0.81730853  0.46774243  0.40805067  1.0
  O  O8301  1  0.81730853  0.63440909  0.40805067  1.0
  O  O8302  1  0.81730853  0.80107576  0.40805067  1.0
  O  O8303  1  0.81730853  0.96774243  0.40805067  1.0
  O  O8304  1  0.90821763  0.13440909  0.40805067  1.0
  O  O8305  1  0.90821763  0.30107576  0.40805067  1.0
  O  O8306  1  0.90821763  0.46774243  0.40805067  1.0
  O  O8307  1  0.90821762  0.63440909  0.40805067  1.0
  O  O8308  1  0.90821763  0.80107576  0.40805067  1.0
  O  O8309  1  0.90821763  0.96774243  0.40805067  1.0
  O  O8310  1  0.99912672  0.13440909  0.40805067  1.0
  O  O8311  1  0.99912672  0.30107576  0.40805067  1.0
  O  O8312  1  0.99912672  0.46774243  0.40805067  1.0
  O  O8313  1  0.99912672  0.63440909  0.40805067  1.0
  O  O8314  1  0.99912672  0.80107576  0.40805067  1.0
  O  O8315  1  0.99912672  0.96774243  0.40805067  1.0
  O  O8316  1  0.03244008  0.03179893  0.45516017  1.0
  O  O8317  1  0.03244008  0.19846560  0.45516017  1.0
  O  O8318  1  0.03244008  0.36513227  0.45516017  1.0
  O  O8319  1  0.03244008  0.53179893  0.45516017  1.0
  O  O8320  1  0.03244008  0.69846560  0.45516017  1.0
  O  O8321  1  0.03244008  0.86513227  0.45516017  1.0
  O  O8322  1  0.12334917  0.03179893  0.45516017  1.0
  O  O8323  1  0.12334917  0.19846560  0.45516017  1.0
  O  O8324  1  0.12334917  0.36513227  0.45516017  1.0
  O  O8325  1  0.12334917  0.53179893  0.45516017  1.0
  O  O8326  1  0.12334917  0.69846560  0.45516017  1.0
  O  O8327  1  0.12334917  0.86513227  0.45516017  1.0
  O  O8328  1  0.21425826  0.03179893  0.45516017  1.0
  O  O8329  1  0.21425826  0.19846560  0.45516017  1.0
  O  O8330  1  0.21425826  0.36513227  0.45516017  1.0
  O  O8331  1  0.21425826  0.53179893  0.45516017  1.0
  O  O8332  1  0.21425826  0.69846560  0.45516017  1.0
  O  O8333  1  0.21425826  0.86513227  0.45516017  1.0
  O  O8334  1  0.30516735  0.03179893  0.45516017  1.0
  O  O8335  1  0.30516735  0.19846560  0.45516017  1.0
  O  O8336  1  0.30516735  0.36513227  0.45516017  1.0
  O  O8337  1  0.30516735  0.53179893  0.45516017  1.0
  O  O8338  1  0.30516735  0.69846560  0.45516017  1.0
  O  O8339  1  0.30516735  0.86513227  0.45516017  1.0
  O  O8340  1  0.39607644  0.03179893  0.45516017  1.0
  O  O8341  1  0.39607644  0.19846560  0.45516017  1.0
  O  O8342  1  0.39607644  0.36513227  0.45516017  1.0
  O  O8343  1  0.39607644  0.53179893  0.45516017  1.0
  O  O8344  1  0.39607644  0.69846560  0.45516017  1.0
  O  O8345  1  0.39607644  0.86513227  0.45516017  1.0
  O  O8346  1  0.48698553  0.03179893  0.45516017  1.0
  O  O8347  1  0.48698553  0.19846560  0.45516017  1.0
  O  O8348  1  0.48698553  0.36513227  0.45516017  1.0
  O  O8349  1  0.48698553  0.53179893  0.45516017  1.0
  O  O8350  1  0.48698553  0.69846560  0.45516017  1.0
  O  O8351  1  0.48698553  0.86513227  0.45516017  1.0
  O  O8352  1  0.57789462  0.03179893  0.45516017  1.0
  O  O8353  1  0.57789462  0.19846560  0.45516017  1.0
  O  O8354  1  0.57789462  0.36513227  0.45516017  1.0
  O  O8355  1  0.57789462  0.53179893  0.45516017  1.0
  O  O8356  1  0.57789462  0.69846560  0.45516017  1.0
  O  O8357  1  0.57789462  0.86513227  0.45516017  1.0
  O  O8358  1  0.66880371  0.03179893  0.45516017  1.0
  O  O8359  1  0.66880371  0.19846560  0.45516017  1.0
  O  O8360  1  0.66880371  0.36513227  0.45516017  1.0
  O  O8361  1  0.66880371  0.53179893  0.45516017  1.0
  O  O8362  1  0.66880371  0.69846560  0.45516017  1.0
  O  O8363  1  0.66880371  0.86513227  0.45516017  1.0
  O  O8364  1  0.75971280  0.03179893  0.45516017  1.0
  O  O8365  1  0.75971280  0.19846560  0.45516017  1.0
  O  O8366  1  0.75971280  0.36513227  0.45516017  1.0
  O  O8367  1  0.75971280  0.53179893  0.45516017  1.0
  O  O8368  1  0.75971280  0.69846560  0.45516017  1.0
  O  O8369  1  0.75971280  0.86513227  0.45516017  1.0
  O  O8370  1  0.85062189  0.03179893  0.45516017  1.0
  O  O8371  1  0.85062189  0.19846560  0.45516017  1.0
  O  O8372  1  0.85062189  0.36513227  0.45516017  1.0
  O  O8373  1  0.85062189  0.53179893  0.45516017  1.0
  O  O8374  1  0.85062189  0.69846560  0.45516017  1.0
  O  O8375  1  0.85062189  0.86513227  0.45516017  1.0
  O  O8376  1  0.94153098  0.03179893  0.45516017  1.0
  O  O8377  1  0.94153099  0.19846560  0.45516017  1.0
  O  O8378  1  0.94153099  0.36513227  0.45516017  1.0
  O  O8379  1  0.94153099  0.53179893  0.45516017  1.0
  O  O8380  1  0.94153098  0.69846560  0.45516017  1.0
  O  O8381  1  0.94153099  0.86513227  0.45516017  1.0
  O  O8382  1  0.07789462  0.04370369  0.38373160  1.0
  O  O8383  1  0.07789462  0.21037036  0.38373160  1.0
  O  O8384  1  0.07789462  0.37703703  0.38373160  1.0
  O  O8385  1  0.07789462  0.54370369  0.38373160  1.0
  O  O8386  1  0.07789462  0.71037036  0.38373160  1.0
  O  O8387  1  0.07789462  0.87703703  0.38373160  1.0
  O  O8388  1  0.16880371  0.04370369  0.38373160  1.0
  O  O8389  1  0.16880371  0.21037036  0.38373160  1.0
  O  O8390  1  0.16880371  0.37703703  0.38373160  1.0
  O  O8391  1  0.16880371  0.54370369  0.38373160  1.0
  O  O8392  1  0.16880371  0.71037036  0.38373160  1.0
  O  O8393  1  0.16880371  0.87703703  0.38373160  1.0
  O  O8394  1  0.25971280  0.04370369  0.38373160  1.0
  O  O8395  1  0.25971280  0.21037036  0.38373160  1.0
  O  O8396  1  0.25971280  0.37703703  0.38373160  1.0
  O  O8397  1  0.25971280  0.54370369  0.38373160  1.0
  O  O8398  1  0.25971280  0.71037036  0.38373160  1.0
  O  O8399  1  0.25971280  0.87703703  0.38373160  1.0
  O  O8400  1  0.35062189  0.04370369  0.38373160  1.0
  O  O8401  1  0.35062189  0.21037036  0.38373160  1.0
  O  O8402  1  0.35062189  0.37703703  0.38373160  1.0
  O  O8403  1  0.35062189  0.54370369  0.38373160  1.0
  O  O8404  1  0.35062189  0.71037036  0.38373160  1.0
  O  O8405  1  0.35062189  0.87703703  0.38373160  1.0
  O  O8406  1  0.44153098  0.04370369  0.38373160  1.0
  O  O8407  1  0.44153098  0.21037036  0.38373160  1.0
  O  O8408  1  0.44153098  0.37703703  0.38373160  1.0
  O  O8409  1  0.44153098  0.54370369  0.38373160  1.0
  O  O8410  1  0.44153098  0.71037036  0.38373160  1.0
  O  O8411  1  0.44153098  0.87703703  0.38373160  1.0
  O  O8412  1  0.53244008  0.04370369  0.38373160  1.0
  O  O8413  1  0.53244008  0.21037036  0.38373160  1.0
  O  O8414  1  0.53244008  0.37703703  0.38373160  1.0
  O  O8415  1  0.53244008  0.54370369  0.38373160  1.0
  O  O8416  1  0.53244008  0.71037036  0.38373160  1.0
  O  O8417  1  0.53244008  0.87703703  0.38373160  1.0
  O  O8418  1  0.62334917  0.04370369  0.38373160  1.0
  O  O8419  1  0.62334917  0.21037036  0.38373160  1.0
  O  O8420  1  0.62334917  0.37703703  0.38373160  1.0
  O  O8421  1  0.62334917  0.54370369  0.38373160  1.0
  O  O8422  1  0.62334917  0.71037036  0.38373160  1.0
  O  O8423  1  0.62334917  0.87703703  0.38373160  1.0
  O  O8424  1  0.71425826  0.04370369  0.38373160  1.0
  O  O8425  1  0.71425826  0.21037036  0.38373160  1.0
  O  O8426  1  0.71425826  0.37703703  0.38373160  1.0
  O  O8427  1  0.71425826  0.54370369  0.38373160  1.0
  O  O8428  1  0.71425826  0.71037036  0.38373160  1.0
  O  O8429  1  0.71425826  0.87703703  0.38373160  1.0
  O  O8430  1  0.80516735  0.04370369  0.38373160  1.0
  O  O8431  1  0.80516735  0.21037036  0.38373160  1.0
  O  O8432  1  0.80516735  0.37703703  0.38373160  1.0
  O  O8433  1  0.80516735  0.54370369  0.38373160  1.0
  O  O8434  1  0.80516735  0.71037036  0.38373160  1.0
  O  O8435  1  0.80516735  0.87703703  0.38373160  1.0
  O  O8436  1  0.89607644  0.04370369  0.38373160  1.0
  O  O8437  1  0.89607644  0.21037036  0.38373160  1.0
  O  O8438  1  0.89607644  0.37703703  0.38373160  1.0
  O  O8439  1  0.89607644  0.54370369  0.38373160  1.0
  O  O8440  1  0.89607644  0.71037036  0.38373160  1.0
  O  O8441  1  0.89607644  0.87703703  0.38373160  1.0
  O  O8442  1  0.98698553  0.04370369  0.38373160  1.0
  O  O8443  1  0.98698553  0.21037036  0.38373160  1.0
  O  O8444  1  0.98698553  0.37703703  0.38373160  1.0
  O  O8445  1  0.98698553  0.54370369  0.38373160  1.0
  O  O8446  1  0.98698553  0.71037036  0.38373160  1.0
  O  O8447  1  0.98698553  0.87703703  0.38373160  1.0
  O  O8448  1  0.07874726  0.03162103  0.45360559  1.0
  O  O8449  1  0.07874726  0.19828770  0.45360559  1.0
  O  O8450  1  0.07874726  0.36495437  0.45360559  1.0
  O  O8451  1  0.07874726  0.53162103  0.45360559  1.0
  O  O8452  1  0.07874726  0.69828770  0.45360559  1.0
  O  O8453  1  0.07874726  0.86495437  0.45360559  1.0
  O  O8454  1  0.16965635  0.03162103  0.45360559  1.0
  O  O8455  1  0.16965635  0.19828770  0.45360559  1.0
  O  O8456  1  0.16965635  0.36495437  0.45360559  1.0
  O  O8457  1  0.16965635  0.53162103  0.45360559  1.0
  O  O8458  1  0.16965635  0.69828770  0.45360559  1.0
  O  O8459  1  0.16965635  0.86495437  0.45360559  1.0
  O  O8460  1  0.26056544  0.03162103  0.45360559  1.0
  O  O8461  1  0.26056544  0.19828770  0.45360559  1.0
  O  O8462  1  0.26056544  0.36495437  0.45360559  1.0
  O  O8463  1  0.26056544  0.53162103  0.45360559  1.0
  O  O8464  1  0.26056544  0.69828770  0.45360559  1.0
  O  O8465  1  0.26056544  0.86495437  0.45360559  1.0
  O  O8466  1  0.35147453  0.03162103  0.45360559  1.0
  O  O8467  1  0.35147453  0.19828770  0.45360559  1.0
  O  O8468  1  0.35147453  0.36495437  0.45360559  1.0
  O  O8469  1  0.35147453  0.53162103  0.45360559  1.0
  O  O8470  1  0.35147453  0.69828770  0.45360559  1.0
  O  O8471  1  0.35147453  0.86495437  0.45360559  1.0
  O  O8472  1  0.44238362  0.03162103  0.45360559  1.0
  O  O8473  1  0.44238362  0.19828770  0.45360559  1.0
  O  O8474  1  0.44238362  0.36495437  0.45360559  1.0
  O  O8475  1  0.44238362  0.53162103  0.45360559  1.0
  O  O8476  1  0.44238362  0.69828770  0.45360559  1.0
  O  O8477  1  0.44238362  0.86495437  0.45360559  1.0
  O  O8478  1  0.53329271  0.03162103  0.45360559  1.0
  O  O8479  1  0.53329271  0.19828770  0.45360559  1.0
  O  O8480  1  0.53329271  0.36495437  0.45360559  1.0
  O  O8481  1  0.53329271  0.53162103  0.45360559  1.0
  O  O8482  1  0.53329271  0.69828770  0.45360559  1.0
  O  O8483  1  0.53329271  0.86495437  0.45360559  1.0
  O  O8484  1  0.62420180  0.03162103  0.45360559  1.0
  O  O8485  1  0.62420180  0.19828770  0.45360559  1.0
  O  O8486  1  0.62420180  0.36495437  0.45360559  1.0
  O  O8487  1  0.62420180  0.53162103  0.45360559  1.0
  O  O8488  1  0.62420180  0.69828770  0.45360559  1.0
  O  O8489  1  0.62420180  0.86495437  0.45360559  1.0
  O  O8490  1  0.71511089  0.03162103  0.45360559  1.0
  O  O8491  1  0.71511089  0.19828770  0.45360559  1.0
  O  O8492  1  0.71511089  0.36495437  0.45360559  1.0
  O  O8493  1  0.71511089  0.53162103  0.45360559  1.0
  O  O8494  1  0.71511089  0.69828770  0.45360559  1.0
  O  O8495  1  0.71511089  0.86495437  0.45360559  1.0
  O  O8496  1  0.80601998  0.03162103  0.45360559  1.0
  O  O8497  1  0.80601998  0.19828770  0.45360559  1.0
  O  O8498  1  0.80601998  0.36495437  0.45360559  1.0
  O  O8499  1  0.80601998  0.53162103  0.45360559  1.0
  O  O8500  1  0.80601998  0.69828770  0.45360559  1.0
  O  O8501  1  0.80601998  0.86495437  0.45360559  1.0
  O  O8502  1  0.89692907  0.03162103  0.45360559  1.0
  O  O8503  1  0.89692907  0.19828770  0.45360559  1.0
  O  O8504  1  0.89692907  0.36495437  0.45360559  1.0
  O  O8505  1  0.89692907  0.53162103  0.45360559  1.0
  O  O8506  1  0.89692907  0.69828770  0.45360559  1.0
  O  O8507  1  0.89692907  0.86495437  0.45360559  1.0
  O  O8508  1  0.98783817  0.03162103  0.45360559  1.0
  O  O8509  1  0.98783817  0.19828770  0.45360559  1.0
  O  O8510  1  0.98783817  0.36495437  0.45360559  1.0
  O  O8511  1  0.98783817  0.53162103  0.45360559  1.0
  O  O8512  1  0.98783817  0.69828770  0.45360559  1.0
  O  O8513  1  0.98783817  0.86495437  0.45360559  1.0
  O  O8514  1  0.03329271  0.04352580  0.38217702  1.0
  O  O8515  1  0.03329271  0.21019246  0.38217702  1.0
  O  O8516  1  0.03329271  0.37685913  0.38217702  1.0
  O  O8517  1  0.03329271  0.54352580  0.38217702  1.0
  O  O8518  1  0.03329271  0.71019246  0.38217702  1.0
  O  O8519  1  0.03329271  0.87685913  0.38217702  1.0
  O  O8520  1  0.12420180  0.04352580  0.38217702  1.0
  O  O8521  1  0.12420180  0.21019246  0.38217702  1.0
  O  O8522  1  0.12420180  0.37685913  0.38217702  1.0
  O  O8523  1  0.12420180  0.54352580  0.38217702  1.0
  O  O8524  1  0.12420180  0.71019246  0.38217702  1.0
  O  O8525  1  0.12420180  0.87685913  0.38217702  1.0
  O  O8526  1  0.21511089  0.04352580  0.38217702  1.0
  O  O8527  1  0.21511089  0.21019246  0.38217702  1.0
  O  O8528  1  0.21511089  0.37685913  0.38217702  1.0
  O  O8529  1  0.21511089  0.54352580  0.38217702  1.0
  O  O8530  1  0.21511089  0.71019246  0.38217702  1.0
  O  O8531  1  0.21511089  0.87685913  0.38217702  1.0
  O  O8532  1  0.30601998  0.04352580  0.38217702  1.0
  O  O8533  1  0.30601998  0.21019246  0.38217702  1.0
  O  O8534  1  0.30601998  0.37685913  0.38217702  1.0
  O  O8535  1  0.30601998  0.54352580  0.38217702  1.0
  O  O8536  1  0.30601998  0.71019246  0.38217702  1.0
  O  O8537  1  0.30601998  0.87685913  0.38217702  1.0
  O  O8538  1  0.39692907  0.04352580  0.38217702  1.0
  O  O8539  1  0.39692907  0.21019246  0.38217702  1.0
  O  O8540  1  0.39692907  0.37685913  0.38217702  1.0
  O  O8541  1  0.39692907  0.54352580  0.38217702  1.0
  O  O8542  1  0.39692907  0.71019246  0.38217702  1.0
  O  O8543  1  0.39692907  0.87685913  0.38217702  1.0
  O  O8544  1  0.48783817  0.04352580  0.38217702  1.0
  O  O8545  1  0.48783817  0.21019246  0.38217702  1.0
  O  O8546  1  0.48783817  0.37685913  0.38217702  1.0
  O  O8547  1  0.48783816  0.54352580  0.38217702  1.0
  O  O8548  1  0.48783816  0.71019246  0.38217702  1.0
  O  O8549  1  0.48783816  0.87685913  0.38217702  1.0
  O  O8550  1  0.57874726  0.04352580  0.38217702  1.0
  O  O8551  1  0.57874726  0.21019246  0.38217702  1.0
  O  O8552  1  0.57874726  0.37685913  0.38217702  1.0
  O  O8553  1  0.57874726  0.54352580  0.38217702  1.0
  O  O8554  1  0.57874726  0.71019246  0.38217702  1.0
  O  O8555  1  0.57874726  0.87685913  0.38217702  1.0
  O  O8556  1  0.66965635  0.04352580  0.38217702  1.0
  O  O8557  1  0.66965635  0.21019246  0.38217702  1.0
  O  O8558  1  0.66965635  0.37685913  0.38217702  1.0
  O  O8559  1  0.66965635  0.54352580  0.38217702  1.0
  O  O8560  1  0.66965635  0.71019246  0.38217702  1.0
  O  O8561  1  0.66965635  0.87685913  0.38217702  1.0
  O  O8562  1  0.76056544  0.04352580  0.38217702  1.0
  O  O8563  1  0.76056544  0.21019246  0.38217702  1.0
  O  O8564  1  0.76056544  0.37685913  0.38217702  1.0
  O  O8565  1  0.76056544  0.54352580  0.38217702  1.0
  O  O8566  1  0.76056544  0.71019246  0.38217702  1.0
  O  O8567  1  0.76056544  0.87685913  0.38217702  1.0
  O  O8568  1  0.85147453  0.04352580  0.38217702  1.0
  O  O8569  1  0.85147453  0.21019246  0.38217702  1.0
  O  O8570  1  0.85147453  0.37685913  0.38217702  1.0
  O  O8571  1  0.85147453  0.54352580  0.38217702  1.0
  O  O8572  1  0.85147453  0.71019246  0.38217702  1.0
  O  O8573  1  0.85147453  0.87685913  0.38217702  1.0
  O  O8574  1  0.94238362  0.04352580  0.38217702  1.0
  O  O8575  1  0.94238362  0.21019246  0.38217702  1.0
  O  O8576  1  0.94238362  0.37685913  0.38217702  1.0
  O  O8577  1  0.94238362  0.54352580  0.38217702  1.0
  O  O8578  1  0.94238362  0.71019246  0.38217702  1.0
  O  O8579  1  0.94238362  0.87685913  0.38217702  1.0
  O  O8580  1  0.02741305  0.15260411  0.44630506  1.0
  O  O8581  1  0.02741305  0.31927078  0.44630506  1.0
  O  O8582  1  0.02741305  0.48593745  0.44630506  1.0
  O  O8583  1  0.02741305  0.65260411  0.44630506  1.0
  O  O8584  1  0.02741305  0.81927078  0.44630506  1.0
  O  O8585  1  0.02741305  0.98593744  0.44630506  1.0
  O  O8586  1  0.11832214  0.15260411  0.44630506  1.0
  O  O8587  1  0.11832214  0.31927078  0.44630506  1.0
  O  O8588  1  0.11832214  0.48593745  0.44630506  1.0
  O  O8589  1  0.11832214  0.65260411  0.44630506  1.0
  O  O8590  1  0.11832214  0.81927078  0.44630506  1.0
  O  O8591  1  0.11832214  0.98593744  0.44630506  1.0
  O  O8592  1  0.20923123  0.15260411  0.44630506  1.0
  O  O8593  1  0.20923123  0.31927078  0.44630506  1.0
  O  O8594  1  0.20923123  0.48593745  0.44630506  1.0
  O  O8595  1  0.20923123  0.65260411  0.44630506  1.0
  O  O8596  1  0.20923123  0.81927078  0.44630506  1.0
  O  O8597  1  0.20923123  0.98593744  0.44630506  1.0
  O  O8598  1  0.30014032  0.15260411  0.44630506  1.0
  O  O8599  1  0.30014032  0.31927078  0.44630506  1.0
  O  O8600  1  0.30014032  0.48593745  0.44630506  1.0
  O  O8601  1  0.30014032  0.65260411  0.44630506  1.0
  O  O8602  1  0.30014032  0.81927078  0.44630506  1.0
  O  O8603  1  0.30014032  0.98593744  0.44630506  1.0
  O  O8604  1  0.39104941  0.15260411  0.44630506  1.0
  O  O8605  1  0.39104941  0.31927078  0.44630506  1.0
  O  O8606  1  0.39104941  0.48593745  0.44630506  1.0
  O  O8607  1  0.39104941  0.65260411  0.44630506  1.0
  O  O8608  1  0.39104941  0.81927078  0.44630506  1.0
  O  O8609  1  0.39104941  0.98593744  0.44630506  1.0
  O  O8610  1  0.48195851  0.15260411  0.44630506  1.0
  O  O8611  1  0.48195851  0.31927078  0.44630506  1.0
  O  O8612  1  0.48195851  0.48593745  0.44630506  1.0
  O  O8613  1  0.48195851  0.65260411  0.44630506  1.0
  O  O8614  1  0.48195851  0.81927078  0.44630506  1.0
  O  O8615  1  0.48195851  0.98593744  0.44630506  1.0
  O  O8616  1  0.57286760  0.15260411  0.44630506  1.0
  O  O8617  1  0.57286760  0.31927078  0.44630506  1.0
  O  O8618  1  0.57286760  0.48593745  0.44630506  1.0
  O  O8619  1  0.57286760  0.65260411  0.44630506  1.0
  O  O8620  1  0.57286760  0.81927078  0.44630506  1.0
  O  O8621  1  0.57286760  0.98593744  0.44630506  1.0
  O  O8622  1  0.66377669  0.15260411  0.44630506  1.0
  O  O8623  1  0.66377669  0.31927078  0.44630506  1.0
  O  O8624  1  0.66377669  0.48593745  0.44630506  1.0
  O  O8625  1  0.66377669  0.65260411  0.44630506  1.0
  O  O8626  1  0.66377669  0.81927078  0.44630506  1.0
  O  O8627  1  0.66377669  0.98593744  0.44630506  1.0
  O  O8628  1  0.75468578  0.15260411  0.44630506  1.0
  O  O8629  1  0.75468578  0.31927078  0.44630506  1.0
  O  O8630  1  0.75468578  0.48593745  0.44630506  1.0
  O  O8631  1  0.75468578  0.65260411  0.44630506  1.0
  O  O8632  1  0.75468578  0.81927078  0.44630506  1.0
  O  O8633  1  0.75468578  0.98593744  0.44630506  1.0
  O  O8634  1  0.84559487  0.15260411  0.44630506  1.0
  O  O8635  1  0.84559487  0.31927078  0.44630506  1.0
  O  O8636  1  0.84559487  0.48593745  0.44630506  1.0
  O  O8637  1  0.84559487  0.65260411  0.44630506  1.0
  O  O8638  1  0.84559487  0.81927078  0.44630506  1.0
  O  O8639  1  0.84559487  0.98593744  0.44630506  1.0
  O  O8640  1  0.93650396  0.15260411  0.44630506  1.0
  O  O8641  1  0.93650396  0.31927078  0.44630506  1.0
  O  O8642  1  0.93650396  0.48593745  0.44630506  1.0
  O  O8643  1  0.93650396  0.65260411  0.44630506  1.0
  O  O8644  1  0.93650396  0.81927078  0.44630506  1.0
  O  O8645  1  0.93650396  0.98593744  0.44630506  1.0
  O  O8646  1  0.07286760  0.16450887  0.37487649  1.0
  O  O8647  1  0.07286760  0.33117554  0.37487649  1.0
  O  O8648  1  0.07286760  0.49784221  0.37487649  1.0
  O  O8649  1  0.07286760  0.66450887  0.37487649  1.0
  O  O8650  1  0.07286760  0.83117554  0.37487649  1.0
  O  O8651  1  0.07286760  0.99784221  0.37487649  1.0
  O  O8652  1  0.16377669  0.16450887  0.37487649  1.0
  O  O8653  1  0.16377669  0.33117554  0.37487649  1.0
  O  O8654  1  0.16377669  0.49784221  0.37487649  1.0
  O  O8655  1  0.16377669  0.66450887  0.37487649  1.0
  O  O8656  1  0.16377669  0.83117554  0.37487649  1.0
  O  O8657  1  0.16377669  0.99784221  0.37487649  1.0
  O  O8658  1  0.25468578  0.16450887  0.37487649  1.0
  O  O8659  1  0.25468578  0.33117554  0.37487649  1.0
  O  O8660  1  0.25468578  0.49784221  0.37487649  1.0
  O  O8661  1  0.25468578  0.66450887  0.37487649  1.0
  O  O8662  1  0.25468578  0.83117554  0.37487649  1.0
  O  O8663  1  0.25468578  0.99784221  0.37487649  1.0
  O  O8664  1  0.34559487  0.16450887  0.37487649  1.0
  O  O8665  1  0.34559487  0.33117554  0.37487649  1.0
  O  O8666  1  0.34559487  0.49784221  0.37487649  1.0
  O  O8667  1  0.34559487  0.66450887  0.37487649  1.0
  O  O8668  1  0.34559487  0.83117554  0.37487649  1.0
  O  O8669  1  0.34559487  0.99784221  0.37487649  1.0
  O  O8670  1  0.43650396  0.16450887  0.37487649  1.0
  O  O8671  1  0.43650396  0.33117554  0.37487649  1.0
  O  O8672  1  0.43650396  0.49784221  0.37487649  1.0
  O  O8673  1  0.43650396  0.66450887  0.37487649  1.0
  O  O8674  1  0.43650396  0.83117554  0.37487649  1.0
  O  O8675  1  0.43650396  0.99784221  0.37487649  1.0
  O  O8676  1  0.52741305  0.16450887  0.37487649  1.0
  O  O8677  1  0.52741305  0.33117554  0.37487649  1.0
  O  O8678  1  0.52741305  0.49784221  0.37487649  1.0
  O  O8679  1  0.52741305  0.66450887  0.37487649  1.0
  O  O8680  1  0.52741305  0.83117554  0.37487649  1.0
  O  O8681  1  0.52741305  0.99784221  0.37487649  1.0
  O  O8682  1  0.61832214  0.16450887  0.37487649  1.0
  O  O8683  1  0.61832214  0.33117554  0.37487649  1.0
  O  O8684  1  0.61832214  0.49784221  0.37487649  1.0
  O  O8685  1  0.61832214  0.66450887  0.37487649  1.0
  O  O8686  1  0.61832214  0.83117554  0.37487649  1.0
  O  O8687  1  0.61832214  0.99784221  0.37487649  1.0
  O  O8688  1  0.70923123  0.16450887  0.37487649  1.0
  O  O8689  1  0.70923123  0.33117554  0.37487649  1.0
  O  O8690  1  0.70923123  0.49784221  0.37487649  1.0
  O  O8691  1  0.70923123  0.66450887  0.37487649  1.0
  O  O8692  1  0.70923123  0.83117554  0.37487649  1.0
  O  O8693  1  0.70923123  0.99784221  0.37487649  1.0
  O  O8694  1  0.80014032  0.16450887  0.37487649  1.0
  O  O8695  1  0.80014032  0.33117554  0.37487649  1.0
  O  O8696  1  0.80014032  0.49784221  0.37487649  1.0
  O  O8697  1  0.80014032  0.66450887  0.37487649  1.0
  O  O8698  1  0.80014032  0.83117554  0.37487649  1.0
  O  O8699  1  0.80014032  0.99784221  0.37487649  1.0
  O  O8700  1  0.89104941  0.16450887  0.37487649  1.0
  O  O8701  1  0.89104941  0.33117554  0.37487649  1.0
  O  O8702  1  0.89104941  0.49784221  0.37487649  1.0
  O  O8703  1  0.89104941  0.66450887  0.37487649  1.0
  O  O8704  1  0.89104941  0.83117554  0.37487649  1.0
  O  O8705  1  0.89104941  0.99784221  0.37487649  1.0
  O  O8706  1  0.98195851  0.16450887  0.37487649  1.0
  O  O8707  1  0.98195851  0.33117554  0.37487649  1.0
  O  O8708  1  0.98195851  0.49784221  0.37487649  1.0
  O  O8709  1  0.98195851  0.66450887  0.37487649  1.0
  O  O8710  1  0.98195851  0.83117554  0.37487649  1.0
  O  O8711  1  0.98195851  0.99784221  0.37487649  1.0
  O  O8712  1  0.05291745  0.00317036  0.48742231  1.0
  O  O8713  1  0.05291745  0.16983702  0.48742231  1.0
  O  O8714  1  0.05291745  0.33650369  0.48742231  1.0
  O  O8715  1  0.05291745  0.50317036  0.48742231  1.0
  O  O8716  1  0.05291745  0.66983702  0.48742231  1.0
  O  O8717  1  0.05291745  0.83650369  0.48742231  1.0
  O  O8718  1  0.14382654  0.00317036  0.48742231  1.0
  O  O8719  1  0.14382654  0.16983702  0.48742231  1.0
  O  O8720  1  0.14382654  0.33650369  0.48742231  1.0
  O  O8721  1  0.14382654  0.50317036  0.48742231  1.0
  O  O8722  1  0.14382654  0.66983702  0.48742231  1.0
  O  O8723  1  0.14382654  0.83650369  0.48742231  1.0
  O  O8724  1  0.23473563  0.00317036  0.48742231  1.0
  O  O8725  1  0.23473563  0.16983702  0.48742231  1.0
  O  O8726  1  0.23473563  0.33650369  0.48742231  1.0
  O  O8727  1  0.23473563  0.50317036  0.48742231  1.0
  O  O8728  1  0.23473563  0.66983702  0.48742231  1.0
  O  O8729  1  0.23473563  0.83650369  0.48742231  1.0
  O  O8730  1  0.32564472  0.00317036  0.48742231  1.0
  O  O8731  1  0.32564472  0.16983702  0.48742231  1.0
  O  O8732  1  0.32564472  0.33650369  0.48742231  1.0
  O  O8733  1  0.32564472  0.50317036  0.48742231  1.0
  O  O8734  1  0.32564472  0.66983702  0.48742231  1.0
  O  O8735  1  0.32564472  0.83650369  0.48742231  1.0
  O  O8736  1  0.41655381  0.00317036  0.48742231  1.0
  O  O8737  1  0.41655381  0.16983702  0.48742231  1.0
  O  O8738  1  0.41655381  0.33650369  0.48742231  1.0
  O  O8739  1  0.41655381  0.50317036  0.48742231  1.0
  O  O8740  1  0.41655381  0.66983702  0.48742231  1.0
  O  O8741  1  0.41655381  0.83650369  0.48742231  1.0
  O  O8742  1  0.50746290  0.00317036  0.48742231  1.0
  O  O8743  1  0.50746290  0.16983702  0.48742231  1.0
  O  O8744  1  0.50746290  0.33650369  0.48742231  1.0
  O  O8745  1  0.50746290  0.50317036  0.48742231  1.0
  O  O8746  1  0.50746290  0.66983702  0.48742231  1.0
  O  O8747  1  0.50746290  0.83650369  0.48742231  1.0
  O  O8748  1  0.59837200  0.00317036  0.48742231  1.0
  O  O8749  1  0.59837200  0.16983702  0.48742231  1.0
  O  O8750  1  0.59837200  0.33650369  0.48742231  1.0
  O  O8751  1  0.59837200  0.50317036  0.48742231  1.0
  O  O8752  1  0.59837200  0.66983702  0.48742231  1.0
  O  O8753  1  0.59837200  0.83650369  0.48742231  1.0
  O  O8754  1  0.68928109  0.00317036  0.48742231  1.0
  O  O8755  1  0.68928109  0.16983702  0.48742231  1.0
  O  O8756  1  0.68928109  0.33650369  0.48742231  1.0
  O  O8757  1  0.68928109  0.50317036  0.48742231  1.0
  O  O8758  1  0.68928109  0.66983702  0.48742231  1.0
  O  O8759  1  0.68928109  0.83650369  0.48742231  1.0
  O  O8760  1  0.78019018  0.00317036  0.48742231  1.0
  O  O8761  1  0.78019018  0.16983702  0.48742231  1.0
  O  O8762  1  0.78019018  0.33650369  0.48742231  1.0
  O  O8763  1  0.78019018  0.50317036  0.48742231  1.0
  O  O8764  1  0.78019018  0.66983702  0.48742231  1.0
  O  O8765  1  0.78019018  0.83650369  0.48742231  1.0
  O  O8766  1  0.87109927  0.00317036  0.48742231  1.0
  O  O8767  1  0.87109927  0.16983702  0.48742231  1.0
  O  O8768  1  0.87109927  0.33650369  0.48742231  1.0
  O  O8769  1  0.87109927  0.50317036  0.48742231  1.0
  O  O8770  1  0.87109927  0.66983702  0.48742231  1.0
  O  O8771  1  0.87109927  0.83650369  0.48742231  1.0
  O  O8772  1  0.96200836  0.00317036  0.48742231  1.0
  O  O8773  1  0.96200836  0.16983702  0.48742231  1.0
  O  O8774  1  0.96200836  0.33650369  0.48742231  1.0
  O  O8775  1  0.96200836  0.50317036  0.48742231  1.0
  O  O8776  1  0.96200836  0.66983702  0.48742231  1.0
  O  O8777  1  0.96200836  0.83650369  0.48742231  1.0
  O  O8778  1  0.00746290  0.01507512  0.41599374  1.0
  O  O8779  1  0.00746290  0.18174179  0.41599374  1.0
  O  O8780  1  0.00746290  0.34840845  0.41599374  1.0
  O  O8781  1  0.00746290  0.51507512  0.41599374  1.0
  O  O8782  1  0.00746290  0.68174179  0.41599374  1.0
  O  O8783  1  0.00746290  0.84840845  0.41599374  1.0
  O  O8784  1  0.09837200  0.01507512  0.41599374  1.0
  O  O8785  1  0.09837200  0.18174179  0.41599374  1.0
  O  O8786  1  0.09837200  0.34840845  0.41599374  1.0
  O  O8787  1  0.09837200  0.51507512  0.41599374  1.0
  O  O8788  1  0.09837200  0.68174179  0.41599374  1.0
  O  O8789  1  0.09837200  0.84840845  0.41599374  1.0
  O  O8790  1  0.18928109  0.01507512  0.41599374  1.0
  O  O8791  1  0.18928109  0.18174179  0.41599374  1.0
  O  O8792  1  0.18928109  0.34840845  0.41599374  1.0
  O  O8793  1  0.18928109  0.51507512  0.41599374  1.0
  O  O8794  1  0.18928109  0.68174179  0.41599374  1.0
  O  O8795  1  0.18928109  0.84840845  0.41599374  1.0
  O  O8796  1  0.28019018  0.01507512  0.41599374  1.0
  O  O8797  1  0.28019018  0.18174179  0.41599374  1.0
  O  O8798  1  0.28019018  0.34840845  0.41599374  1.0
  O  O8799  1  0.28019018  0.51507512  0.41599374  1.0
  O  O8800  1  0.28019018  0.68174179  0.41599374  1.0
  O  O8801  1  0.28019018  0.84840845  0.41599374  1.0
  O  O8802  1  0.37109927  0.01507512  0.41599374  1.0
  O  O8803  1  0.37109927  0.18174179  0.41599374  1.0
  O  O8804  1  0.37109927  0.34840845  0.41599374  1.0
  O  O8805  1  0.37109927  0.51507512  0.41599374  1.0
  O  O8806  1  0.37109927  0.68174179  0.41599374  1.0
  O  O8807  1  0.37109927  0.84840845  0.41599374  1.0
  O  O8808  1  0.46200836  0.01507512  0.41599374  1.0
  O  O8809  1  0.46200836  0.18174179  0.41599374  1.0
  O  O8810  1  0.46200836  0.34840845  0.41599374  1.0
  O  O8811  1  0.46200836  0.51507512  0.41599374  1.0
  O  O8812  1  0.46200836  0.68174179  0.41599374  1.0
  O  O8813  1  0.46200836  0.84840845  0.41599374  1.0
  O  O8814  1  0.55291745  0.01507512  0.41599374  1.0
  O  O8815  1  0.55291745  0.18174179  0.41599374  1.0
  O  O8816  1  0.55291745  0.34840845  0.41599374  1.0
  O  O8817  1  0.55291745  0.51507512  0.41599374  1.0
  O  O8818  1  0.55291745  0.68174179  0.41599374  1.0
  O  O8819  1  0.55291745  0.84840845  0.41599374  1.0
  O  O8820  1  0.64382654  0.01507512  0.41599374  1.0
  O  O8821  1  0.64382654  0.18174179  0.41599374  1.0
  O  O8822  1  0.64382654  0.34840845  0.41599374  1.0
  O  O8823  1  0.64382654  0.51507512  0.41599374  1.0
  O  O8824  1  0.64382654  0.68174179  0.41599374  1.0
  O  O8825  1  0.64382654  0.84840845  0.41599374  1.0
  O  O8826  1  0.73473563  0.01507512  0.41599374  1.0
  O  O8827  1  0.73473563  0.18174179  0.41599374  1.0
  O  O8828  1  0.73473563  0.34840845  0.41599374  1.0
  O  O8829  1  0.73473563  0.51507512  0.41599374  1.0
  O  O8830  1  0.73473563  0.68174179  0.41599374  1.0
  O  O8831  1  0.73473563  0.84840845  0.41599374  1.0
  O  O8832  1  0.82564472  0.01507512  0.41599374  1.0
  O  O8833  1  0.82564472  0.18174179  0.41599374  1.0
  O  O8834  1  0.82564472  0.34840845  0.41599374  1.0
  O  O8835  1  0.82564472  0.51507512  0.41599374  1.0
  O  O8836  1  0.82564472  0.68174179  0.41599374  1.0
  O  O8837  1  0.82564472  0.84840845  0.41599374  1.0
  O  O8838  1  0.91655381  0.01507512  0.41599374  1.0
  O  O8839  1  0.91655381  0.18174179  0.41599374  1.0
  O  O8840  1  0.91655381  0.34840845  0.41599374  1.0
  O  O8841  1  0.91655381  0.51507512  0.41599374  1.0
  O  O8842  1  0.91655381  0.68174179  0.41599374  1.0
  O  O8843  1  0.91655381  0.84840845  0.41599374  1.0
  O  O8844  1  0.03896435  0.06564869  0.53801996  1.0
  O  O8845  1  0.03896435  0.23231536  0.53801996  1.0
  O  O8846  1  0.03896435  0.39898203  0.53801996  1.0
  O  O8847  1  0.03896435  0.56564869  0.53801996  1.0
  O  O8848  1  0.03896435  0.73231536  0.53801996  1.0
  O  O8849  1  0.03896435  0.89898203  0.53801996  1.0
  O  O8850  1  0.12987344  0.06564869  0.53801996  1.0
  O  O8851  1  0.12987344  0.23231536  0.53801996  1.0
  O  O8852  1  0.12987344  0.39898203  0.53801996  1.0
  O  O8853  1  0.12987344  0.56564869  0.53801996  1.0
  O  O8854  1  0.12987344  0.73231536  0.53801996  1.0
  O  O8855  1  0.12987344  0.89898203  0.53801996  1.0
  O  O8856  1  0.22078253  0.06564869  0.53801996  1.0
  O  O8857  1  0.22078253  0.23231536  0.53801996  1.0
  O  O8858  1  0.22078253  0.39898203  0.53801996  1.0
  O  O8859  1  0.22078253  0.56564869  0.53801996  1.0
  O  O8860  1  0.22078253  0.73231536  0.53801996  1.0
  O  O8861  1  0.22078253  0.89898203  0.53801996  1.0
  O  O8862  1  0.31169162  0.06564869  0.53801996  1.0
  O  O8863  1  0.31169162  0.23231536  0.53801996  1.0
  O  O8864  1  0.31169162  0.39898203  0.53801996  1.0
  O  O8865  1  0.31169162  0.56564869  0.53801996  1.0
  O  O8866  1  0.31169162  0.73231536  0.53801996  1.0
  O  O8867  1  0.31169162  0.89898203  0.53801996  1.0
  O  O8868  1  0.40260071  0.06564869  0.53801996  1.0
  O  O8869  1  0.40260071  0.23231536  0.53801996  1.0
  O  O8870  1  0.40260071  0.39898203  0.53801996  1.0
  O  O8871  1  0.40260071  0.56564869  0.53801996  1.0
  O  O8872  1  0.40260071  0.73231536  0.53801996  1.0
  O  O8873  1  0.40260071  0.89898203  0.53801996  1.0
  O  O8874  1  0.49350980  0.06564869  0.53801996  1.0
  O  O8875  1  0.49350980  0.23231536  0.53801996  1.0
  O  O8876  1  0.49350980  0.39898203  0.53801996  1.0
  O  O8877  1  0.49350980  0.56564869  0.53801996  1.0
  O  O8878  1  0.49350980  0.73231536  0.53801996  1.0
  O  O8879  1  0.49350980  0.89898203  0.53801996  1.0
  O  O8880  1  0.58441889  0.06564869  0.53801996  1.0
  O  O8881  1  0.58441889  0.23231536  0.53801996  1.0
  O  O8882  1  0.58441889  0.39898203  0.53801996  1.0
  O  O8883  1  0.58441889  0.56564869  0.53801996  1.0
  O  O8884  1  0.58441889  0.73231536  0.53801996  1.0
  O  O8885  1  0.58441889  0.89898203  0.53801996  1.0
  O  O8886  1  0.67532798  0.06564869  0.53801996  1.0
  O  O8887  1  0.67532798  0.23231536  0.53801996  1.0
  O  O8888  1  0.67532798  0.39898203  0.53801996  1.0
  O  O8889  1  0.67532798  0.56564869  0.53801996  1.0
  O  O8890  1  0.67532798  0.73231536  0.53801996  1.0
  O  O8891  1  0.67532798  0.89898203  0.53801996  1.0
  O  O8892  1  0.76623707  0.06564869  0.53801996  1.0
  O  O8893  1  0.76623707  0.23231536  0.53801996  1.0
  O  O8894  1  0.76623707  0.39898203  0.53801996  1.0
  O  O8895  1  0.76623707  0.56564869  0.53801996  1.0
  O  O8896  1  0.76623707  0.73231536  0.53801996  1.0
  O  O8897  1  0.76623707  0.89898203  0.53801996  1.0
  O  O8898  1  0.85714616  0.06564869  0.53801996  1.0
  O  O8899  1  0.85714616  0.23231536  0.53801996  1.0
  O  O8900  1  0.85714616  0.39898203  0.53801996  1.0
  O  O8901  1  0.85714616  0.56564869  0.53801996  1.0
  O  O8902  1  0.85714616  0.73231536  0.53801996  1.0
  O  O8903  1  0.85714616  0.89898203  0.53801996  1.0
  O  O8904  1  0.94805525  0.06564869  0.53801996  1.0
  O  O8905  1  0.94805525  0.23231536  0.53801996  1.0
  O  O8906  1  0.94805525  0.39898203  0.53801996  1.0
  O  O8907  1  0.94805525  0.56564869  0.53801996  1.0
  O  O8908  1  0.94805525  0.73231536  0.53801996  1.0
  O  O8909  1  0.94805525  0.89898203  0.53801996  1.0
  O  O8910  1  0.08441889  0.05374393  0.60944853  1.0
  O  O8911  1  0.08441889  0.22041060  0.60944853  1.0
  O  O8912  1  0.08441889  0.38707726  0.60944853  1.0
  O  O8913  1  0.08441889  0.55374393  0.60944853  1.0
  O  O8914  1  0.08441889  0.72041060  0.60944853  1.0
  O  O8915  1  0.08441889  0.88707726  0.60944853  1.0
  O  O8916  1  0.17532798  0.05374393  0.60944853  1.0
  O  O8917  1  0.17532798  0.22041060  0.60944853  1.0
  O  O8918  1  0.17532798  0.38707726  0.60944853  1.0
  O  O8919  1  0.17532798  0.55374393  0.60944853  1.0
  O  O8920  1  0.17532798  0.72041060  0.60944853  1.0
  O  O8921  1  0.17532798  0.88707726  0.60944853  1.0
  O  O8922  1  0.26623707  0.05374393  0.60944853  1.0
  O  O8923  1  0.26623707  0.22041060  0.60944853  1.0
  O  O8924  1  0.26623707  0.38707726  0.60944853  1.0
  O  O8925  1  0.26623707  0.55374393  0.60944853  1.0
  O  O8926  1  0.26623707  0.72041060  0.60944853  1.0
  O  O8927  1  0.26623707  0.88707726  0.60944853  1.0
  O  O8928  1  0.35714616  0.05374393  0.60944853  1.0
  O  O8929  1  0.35714616  0.22041060  0.60944853  1.0
  O  O8930  1  0.35714616  0.38707726  0.60944853  1.0
  O  O8931  1  0.35714616  0.55374393  0.60944853  1.0
  O  O8932  1  0.35714616  0.72041060  0.60944853  1.0
  O  O8933  1  0.35714616  0.88707726  0.60944853  1.0
  O  O8934  1  0.44805525  0.05374393  0.60944853  1.0
  O  O8935  1  0.44805525  0.22041060  0.60944853  1.0
  O  O8936  1  0.44805525  0.38707726  0.60944853  1.0
  O  O8937  1  0.44805525  0.55374393  0.60944853  1.0
  O  O8938  1  0.44805525  0.72041060  0.60944853  1.0
  O  O8939  1  0.44805525  0.88707726  0.60944853  1.0
  O  O8940  1  0.53896435  0.05374393  0.60944853  1.0
  O  O8941  1  0.53896435  0.22041060  0.60944853  1.0
  O  O8942  1  0.53896435  0.38707726  0.60944853  1.0
  O  O8943  1  0.53896435  0.55374393  0.60944853  1.0
  O  O8944  1  0.53896435  0.72041060  0.60944853  1.0
  O  O8945  1  0.53896435  0.88707726  0.60944853  1.0
  O  O8946  1  0.62987344  0.05374393  0.60944853  1.0
  O  O8947  1  0.62987344  0.22041060  0.60944853  1.0
  O  O8948  1  0.62987344  0.38707726  0.60944853  1.0
  O  O8949  1  0.62987344  0.55374393  0.60944853  1.0
  O  O8950  1  0.62987344  0.72041060  0.60944853  1.0
  O  O8951  1  0.62987344  0.88707726  0.60944853  1.0
  O  O8952  1  0.72078253  0.05374393  0.60944853  1.0
  O  O8953  1  0.72078253  0.22041060  0.60944853  1.0
  O  O8954  1  0.72078253  0.38707726  0.60944853  1.0
  O  O8955  1  0.72078253  0.55374393  0.60944853  1.0
  O  O8956  1  0.72078253  0.72041060  0.60944853  1.0
  O  O8957  1  0.72078253  0.88707726  0.60944853  1.0
  O  O8958  1  0.81169162  0.05374393  0.60944853  1.0
  O  O8959  1  0.81169162  0.22041060  0.60944853  1.0
  O  O8960  1  0.81169162  0.38707726  0.60944853  1.0
  O  O8961  1  0.81169162  0.55374393  0.60944853  1.0
  O  O8962  1  0.81169162  0.72041060  0.60944853  1.0
  O  O8963  1  0.81169162  0.88707726  0.60944853  1.0
  O  O8964  1  0.90260071  0.05374393  0.60944853  1.0
  O  O8965  1  0.90260071  0.22041060  0.60944853  1.0
  O  O8966  1  0.90260071  0.38707726  0.60944853  1.0
  O  O8967  1  0.90260071  0.55374393  0.60944853  1.0
  O  O8968  1  0.90260071  0.72041060  0.60944853  1.0
  O  O8969  1  0.90260071  0.88707726  0.60944853  1.0
  O  O8970  1  0.99350980  0.05374393  0.60944853  1.0
  O  O8971  1  0.99350980  0.22041060  0.60944853  1.0
  O  O8972  1  0.99350980  0.38707726  0.60944853  1.0
  O  O8973  1  0.99350980  0.55374393  0.60944853  1.0
  O  O8974  1  0.99350980  0.72041060  0.60944853  1.0
  O  O8975  1  0.99350980  0.88707726  0.60944853  1.0
  O  O8976  1  0.04541204  0.11036857  0.54938120  1.0
  O  O8977  1  0.04541204  0.27703524  0.54938120  1.0
  O  O8978  1  0.04541204  0.44370191  0.54938120  1.0
  O  O8979  1  0.04541204  0.61036857  0.54938120  1.0
  O  O8980  1  0.04541204  0.77703524  0.54938120  1.0
  O  O8981  1  0.04541204  0.94370191  0.54938120  1.0
  O  O8982  1  0.13632113  0.11036857  0.54938120  1.0
  O  O8983  1  0.13632113  0.27703524  0.54938120  1.0
  O  O8984  1  0.13632113  0.44370191  0.54938120  1.0
  O  O8985  1  0.13632113  0.61036857  0.54938120  1.0
  O  O8986  1  0.13632113  0.77703524  0.54938120  1.0
  O  O8987  1  0.13632113  0.94370191  0.54938120  1.0
  O  O8988  1  0.22723022  0.11036857  0.54938120  1.0
  O  O8989  1  0.22723022  0.27703524  0.54938120  1.0
  O  O8990  1  0.22723022  0.44370191  0.54938120  1.0
  O  O8991  1  0.22723022  0.61036857  0.54938120  1.0
  O  O8992  1  0.22723022  0.77703524  0.54938120  1.0
  O  O8993  1  0.22723022  0.94370191  0.54938120  1.0
  O  O8994  1  0.31813931  0.11036857  0.54938120  1.0
  O  O8995  1  0.31813931  0.27703524  0.54938120  1.0
  O  O8996  1  0.31813931  0.44370191  0.54938120  1.0
  O  O8997  1  0.31813931  0.61036857  0.54938120  1.0
  O  O8998  1  0.31813931  0.77703524  0.54938120  1.0
  O  O8999  1  0.31813931  0.94370191  0.54938120  1.0
  O  O9000  1  0.40904840  0.11036857  0.54938120  1.0
  O  O9001  1  0.40904840  0.27703524  0.54938120  1.0
  O  O9002  1  0.40904840  0.44370191  0.54938120  1.0
  O  O9003  1  0.40904840  0.61036857  0.54938120  1.0
  O  O9004  1  0.40904840  0.77703524  0.54938120  1.0
  O  O9005  1  0.40904840  0.94370191  0.54938120  1.0
  O  O9006  1  0.49995749  0.11036857  0.54938120  1.0
  O  O9007  1  0.49995749  0.27703524  0.54938120  1.0
  O  O9008  1  0.49995749  0.44370191  0.54938120  1.0
  O  O9009  1  0.49995749  0.61036857  0.54938120  1.0
  O  O9010  1  0.49995749  0.77703524  0.54938120  1.0
  O  O9011  1  0.49995749  0.94370191  0.54938120  1.0
  O  O9012  1  0.59086659  0.11036857  0.54938120  1.0
  O  O9013  1  0.59086659  0.27703524  0.54938120  1.0
  O  O9014  1  0.59086659  0.44370191  0.54938120  1.0
  O  O9015  1  0.59086659  0.61036857  0.54938120  1.0
  O  O9016  1  0.59086659  0.77703524  0.54938120  1.0
  O  O9017  1  0.59086659  0.94370191  0.54938120  1.0
  O  O9018  1  0.68177568  0.11036857  0.54938120  1.0
  O  O9019  1  0.68177568  0.27703524  0.54938120  1.0
  O  O9020  1  0.68177568  0.44370191  0.54938120  1.0
  O  O9021  1  0.68177568  0.61036857  0.54938120  1.0
  O  O9022  1  0.68177568  0.77703524  0.54938120  1.0
  O  O9023  1  0.68177568  0.94370191  0.54938120  1.0
  O  O9024  1  0.77268477  0.11036857  0.54938120  1.0
  O  O9025  1  0.77268477  0.27703524  0.54938120  1.0
  O  O9026  1  0.77268477  0.44370191  0.54938120  1.0
  O  O9027  1  0.77268477  0.61036857  0.54938120  1.0
  O  O9028  1  0.77268477  0.77703524  0.54938120  1.0
  O  O9029  1  0.77268477  0.94370191  0.54938120  1.0
  O  O9030  1  0.86359386  0.11036857  0.54938120  1.0
  O  O9031  1  0.86359386  0.27703524  0.54938120  1.0
  O  O9032  1  0.86359386  0.44370191  0.54938120  1.0
  O  O9033  1  0.86359386  0.61036857  0.54938120  1.0
  O  O9034  1  0.86359386  0.77703524  0.54938120  1.0
  O  O9035  1  0.86359386  0.94370191  0.54938120  1.0
  O  O9036  1  0.95450295  0.11036857  0.54938120  1.0
  O  O9037  1  0.95450295  0.27703524  0.54938120  1.0
  O  O9038  1  0.95450295  0.44370191  0.54938120  1.0
  O  O9039  1  0.95450295  0.61036857  0.54938120  1.0
  O  O9040  1  0.95450295  0.77703524  0.54938120  1.0
  O  O9041  1  0.95450295  0.94370191  0.54938120  1.0
  O  O9042  1  0.09086659  0.09846381  0.62080977  1.0
  O  O9043  1  0.09086659  0.26513048  0.62080977  1.0
  O  O9044  1  0.09086659  0.43179714  0.62080977  1.0
  O  O9045  1  0.09086659  0.59846381  0.62080977  1.0
  O  O9046  1  0.09086659  0.76513048  0.62080977  1.0
  O  O9047  1  0.09086659  0.93179714  0.62080977  1.0
  O  O9048  1  0.18177568  0.09846381  0.62080977  1.0
  O  O9049  1  0.18177568  0.26513048  0.62080977  1.0
  O  O9050  1  0.18177568  0.43179714  0.62080977  1.0
  O  O9051  1  0.18177568  0.59846381  0.62080977  1.0
  O  O9052  1  0.18177568  0.76513048  0.62080977  1.0
  O  O9053  1  0.18177568  0.93179714  0.62080977  1.0
  O  O9054  1  0.27268477  0.09846381  0.62080977  1.0
  O  O9055  1  0.27268477  0.26513048  0.62080977  1.0
  O  O9056  1  0.27268477  0.43179714  0.62080977  1.0
  O  O9057  1  0.27268477  0.59846381  0.62080977  1.0
  O  O9058  1  0.27268477  0.76513048  0.62080977  1.0
  O  O9059  1  0.27268477  0.93179714  0.62080977  1.0
  O  O9060  1  0.36359386  0.09846381  0.62080977  1.0
  O  O9061  1  0.36359386  0.26513048  0.62080977  1.0
  O  O9062  1  0.36359386  0.43179714  0.62080977  1.0
  O  O9063  1  0.36359386  0.59846381  0.62080977  1.0
  O  O9064  1  0.36359386  0.76513048  0.62080977  1.0
  O  O9065  1  0.36359386  0.93179714  0.62080977  1.0
  O  O9066  1  0.45450295  0.09846381  0.62080977  1.0
  O  O9067  1  0.45450295  0.26513048  0.62080977  1.0
  O  O9068  1  0.45450295  0.43179714  0.62080977  1.0
  O  O9069  1  0.45450295  0.59846381  0.62080977  1.0
  O  O9070  1  0.45450295  0.76513048  0.62080977  1.0
  O  O9071  1  0.45450295  0.93179714  0.62080977  1.0
  O  O9072  1  0.54541204  0.09846381  0.62080977  1.0
  O  O9073  1  0.54541204  0.26513048  0.62080977  1.0
  O  O9074  1  0.54541204  0.43179714  0.62080977  1.0
  O  O9075  1  0.54541204  0.59846381  0.62080977  1.0
  O  O9076  1  0.54541204  0.76513048  0.62080977  1.0
  O  O9077  1  0.54541204  0.93179714  0.62080977  1.0
  O  O9078  1  0.63632113  0.09846381  0.62080977  1.0
  O  O9079  1  0.63632113  0.26513048  0.62080977  1.0
  O  O9080  1  0.63632113  0.43179714  0.62080977  1.0
  O  O9081  1  0.63632113  0.59846381  0.62080977  1.0
  O  O9082  1  0.63632113  0.76513048  0.62080977  1.0
  O  O9083  1  0.63632113  0.93179714  0.62080977  1.0
  O  O9084  1  0.72723022  0.09846381  0.62080977  1.0
  O  O9085  1  0.72723022  0.26513048  0.62080977  1.0
  O  O9086  1  0.72723022  0.43179714  0.62080977  1.0
  O  O9087  1  0.72723022  0.59846381  0.62080977  1.0
  O  O9088  1  0.72723022  0.76513048  0.62080977  1.0
  O  O9089  1  0.72723022  0.93179714  0.62080977  1.0
  O  O9090  1  0.81813931  0.09846381  0.62080977  1.0
  O  O9091  1  0.81813931  0.26513048  0.62080977  1.0
  O  O9092  1  0.81813931  0.43179714  0.62080977  1.0
  O  O9093  1  0.81813931  0.59846381  0.62080977  1.0
  O  O9094  1  0.81813931  0.76513048  0.62080977  1.0
  O  O9095  1  0.81813931  0.93179714  0.62080977  1.0
  O  O9096  1  0.90904840  0.09846381  0.62080977  1.0
  O  O9097  1  0.90904840  0.26513048  0.62080977  1.0
  O  O9098  1  0.90904840  0.43179714  0.62080977  1.0
  O  O9099  1  0.90904840  0.59846381  0.62080977  1.0
  O  O9100  1  0.90904840  0.76513048  0.62080977  1.0
  O  O9101  1  0.90904840  0.93179714  0.62080977  1.0
  O  O9102  1  0.99995749  0.09846381  0.62080977  1.0
  O  O9103  1  0.99995749  0.26513048  0.62080977  1.0
  O  O9104  1  0.99995749  0.43179714  0.62080977  1.0
  O  O9105  1  0.99995749  0.59846381  0.62080977  1.0
  O  O9106  1  0.99995749  0.76513048  0.62080977  1.0
  O  O9107  1  0.99995749  0.93179714  0.62080977  1.0
  O  O9108  1  0.01281294  0.03700324  0.56919544  1.0
  O  O9109  1  0.01281294  0.20366991  0.56919544  1.0
  O  O9110  1  0.01281294  0.37033657  0.56919544  1.0
  O  O9111  1  0.01281294  0.53700324  0.56919544  1.0
  O  O9112  1  0.01281294  0.70366991  0.56919544  1.0
  O  O9113  1  0.01281294  0.87033657  0.56919544  1.0
  O  O9114  1  0.10372203  0.03700324  0.56919544  1.0
  O  O9115  1  0.10372203  0.20366991  0.56919544  1.0
  O  O9116  1  0.10372203  0.37033657  0.56919544  1.0
  O  O9117  1  0.10372203  0.53700324  0.56919544  1.0
  O  O9118  1  0.10372203  0.70366991  0.56919544  1.0
  O  O9119  1  0.10372203  0.87033657  0.56919544  1.0
  O  O9120  1  0.19463112  0.03700324  0.56919544  1.0
  O  O9121  1  0.19463112  0.20366991  0.56919544  1.0
  O  O9122  1  0.19463112  0.37033657  0.56919544  1.0
  O  O9123  1  0.19463112  0.53700324  0.56919544  1.0
  O  O9124  1  0.19463112  0.70366991  0.56919544  1.0
  O  O9125  1  0.19463112  0.87033657  0.56919544  1.0
  O  O9126  1  0.28554021  0.03700324  0.56919544  1.0
  O  O9127  1  0.28554021  0.20366991  0.56919544  1.0
  O  O9128  1  0.28554021  0.37033657  0.56919544  1.0
  O  O9129  1  0.28554021  0.53700324  0.56919544  1.0
  O  O9130  1  0.28554021  0.70366991  0.56919544  1.0
  O  O9131  1  0.28554021  0.87033657  0.56919544  1.0
  O  O9132  1  0.37644930  0.03700324  0.56919544  1.0
  O  O9133  1  0.37644930  0.20366991  0.56919544  1.0
  O  O9134  1  0.37644930  0.37033657  0.56919544  1.0
  O  O9135  1  0.37644930  0.53700324  0.56919544  1.0
  O  O9136  1  0.37644930  0.70366991  0.56919544  1.0
  O  O9137  1  0.37644930  0.87033657  0.56919544  1.0
  O  O9138  1  0.46735840  0.03700324  0.56919544  1.0
  O  O9139  1  0.46735840  0.20366991  0.56919544  1.0
  O  O9140  1  0.46735840  0.37033657  0.56919544  1.0
  O  O9141  1  0.46735840  0.53700324  0.56919544  1.0
  O  O9142  1  0.46735840  0.70366991  0.56919544  1.0
  O  O9143  1  0.46735840  0.87033657  0.56919544  1.0
  O  O9144  1  0.55826749  0.03700324  0.56919544  1.0
  O  O9145  1  0.55826749  0.20366991  0.56919544  1.0
  O  O9146  1  0.55826749  0.37033657  0.56919544  1.0
  O  O9147  1  0.55826749  0.53700324  0.56919544  1.0
  O  O9148  1  0.55826749  0.70366991  0.56919544  1.0
  O  O9149  1  0.55826749  0.87033657  0.56919544  1.0
  O  O9150  1  0.64917658  0.03700324  0.56919544  1.0
  O  O9151  1  0.64917658  0.20366991  0.56919544  1.0
  O  O9152  1  0.64917658  0.37033657  0.56919544  1.0
  O  O9153  1  0.64917658  0.53700324  0.56919544  1.0
  O  O9154  1  0.64917658  0.70366991  0.56919544  1.0
  O  O9155  1  0.64917658  0.87033657  0.56919544  1.0
  O  O9156  1  0.74008567  0.03700324  0.56919544  1.0
  O  O9157  1  0.74008567  0.20366991  0.56919544  1.0
  O  O9158  1  0.74008567  0.37033657  0.56919544  1.0
  O  O9159  1  0.74008567  0.53700324  0.56919544  1.0
  O  O9160  1  0.74008567  0.70366991  0.56919544  1.0
  O  O9161  1  0.74008567  0.87033657  0.56919544  1.0
  O  O9162  1  0.83099476  0.03700324  0.56919544  1.0
  O  O9163  1  0.83099476  0.20366991  0.56919544  1.0
  O  O9164  1  0.83099476  0.37033657  0.56919544  1.0
  O  O9165  1  0.83099476  0.53700324  0.56919544  1.0
  O  O9166  1  0.83099476  0.70366991  0.56919544  1.0
  O  O9167  1  0.83099476  0.87033657  0.56919544  1.0
  O  O9168  1  0.92190385  0.03700324  0.56919544  1.0
  O  O9169  1  0.92190385  0.20366991  0.56919544  1.0
  O  O9170  1  0.92190385  0.37033657  0.56919544  1.0
  O  O9171  1  0.92190385  0.53700324  0.56919544  1.0
  O  O9172  1  0.92190385  0.70366991  0.56919544  1.0
  O  O9173  1  0.92190385  0.87033657  0.56919544  1.0
  O  O9174  1  0.05826749  0.02509848  0.64062401  1.0
  O  O9175  1  0.05826749  0.19176514  0.64062401  1.0
  O  O9176  1  0.05826749  0.35843181  0.64062401  1.0
  O  O9177  1  0.05826749  0.52509848  0.64062401  1.0
  O  O9178  1  0.05826749  0.69176514  0.64062401  1.0
  O  O9179  1  0.05826749  0.85843181  0.64062401  1.0
  O  O9180  1  0.14917658  0.02509848  0.64062401  1.0
  O  O9181  1  0.14917658  0.19176514  0.64062401  1.0
  O  O9182  1  0.14917658  0.35843181  0.64062401  1.0
  O  O9183  1  0.14917658  0.52509848  0.64062401  1.0
  O  O9184  1  0.14917658  0.69176514  0.64062401  1.0
  O  O9185  1  0.14917658  0.85843181  0.64062401  1.0
  O  O9186  1  0.24008567  0.02509848  0.64062401  1.0
  O  O9187  1  0.24008567  0.19176514  0.64062401  1.0
  O  O9188  1  0.24008567  0.35843181  0.64062401  1.0
  O  O9189  1  0.24008567  0.52509848  0.64062401  1.0
  O  O9190  1  0.24008567  0.69176514  0.64062401  1.0
  O  O9191  1  0.24008567  0.85843181  0.64062401  1.0
  O  O9192  1  0.33099476  0.02509848  0.64062401  1.0
  O  O9193  1  0.33099476  0.19176514  0.64062401  1.0
  O  O9194  1  0.33099476  0.35843181  0.64062401  1.0
  O  O9195  1  0.33099476  0.52509848  0.64062401  1.0
  O  O9196  1  0.33099476  0.69176514  0.64062401  1.0
  O  O9197  1  0.33099476  0.85843181  0.64062401  1.0
  O  O9198  1  0.42190385  0.02509848  0.64062401  1.0
  O  O9199  1  0.42190385  0.19176514  0.64062401  1.0
  O  O9200  1  0.42190385  0.35843181  0.64062401  1.0
  O  O9201  1  0.42190385  0.52509848  0.64062401  1.0
  O  O9202  1  0.42190385  0.69176514  0.64062401  1.0
  O  O9203  1  0.42190385  0.85843181  0.64062401  1.0
  O  O9204  1  0.51281294  0.02509848  0.64062401  1.0
  O  O9205  1  0.51281294  0.19176514  0.64062401  1.0
  O  O9206  1  0.51281294  0.35843181  0.64062401  1.0
  O  O9207  1  0.51281294  0.52509848  0.64062401  1.0
  O  O9208  1  0.51281294  0.69176514  0.64062401  1.0
  O  O9209  1  0.51281294  0.85843181  0.64062401  1.0
  O  O9210  1  0.60372203  0.02509848  0.64062401  1.0
  O  O9211  1  0.60372203  0.19176514  0.64062401  1.0
  O  O9212  1  0.60372203  0.35843181  0.64062401  1.0
  O  O9213  1  0.60372203  0.52509848  0.64062401  1.0
  O  O9214  1  0.60372203  0.69176514  0.64062401  1.0
  O  O9215  1  0.60372203  0.85843181  0.64062401  1.0
  O  O9216  1  0.69463112  0.02509848  0.64062401  1.0
  O  O9217  1  0.69463112  0.19176514  0.64062401  1.0
  O  O9218  1  0.69463112  0.35843181  0.64062401  1.0
  O  O9219  1  0.69463112  0.52509848  0.64062401  1.0
  O  O9220  1  0.69463112  0.69176514  0.64062401  1.0
  O  O9221  1  0.69463112  0.85843181  0.64062401  1.0
  O  O9222  1  0.78554021  0.02509848  0.64062401  1.0
  O  O9223  1  0.78554021  0.19176514  0.64062401  1.0
  O  O9224  1  0.78554021  0.35843181  0.64062401  1.0
  O  O9225  1  0.78554021  0.52509848  0.64062401  1.0
  O  O9226  1  0.78554021  0.69176514  0.64062401  1.0
  O  O9227  1  0.78554021  0.85843181  0.64062401  1.0
  O  O9228  1  0.87644930  0.02509848  0.64062401  1.0
  O  O9229  1  0.87644930  0.19176514  0.64062401  1.0
  O  O9230  1  0.87644930  0.35843181  0.64062401  1.0
  O  O9231  1  0.87644930  0.52509848  0.64062401  1.0
  O  O9232  1  0.87644930  0.69176514  0.64062401  1.0
  O  O9233  1  0.87644930  0.85843181  0.64062401  1.0
  O  O9234  1  0.96735840  0.02509848  0.64062401  1.0
  O  O9235  1  0.96735840  0.19176514  0.64062401  1.0
  O  O9236  1  0.96735840  0.35843181  0.64062401  1.0
  O  O9237  1  0.96735840  0.52509848  0.64062401  1.0
  O  O9238  1  0.96735840  0.69176514  0.64062401  1.0
  O  O9239  1  0.96735840  0.85843181  0.64062401  1.0
  O  O9240  1  0.01895556  0.08200550  0.57833499  1.0
  O  O9241  1  0.01895556  0.24867217  0.57833499  1.0
  O  O9242  1  0.01895556  0.41533884  0.57833499  1.0
  O  O9243  1  0.01895556  0.58200550  0.57833499  1.0
  O  O9244  1  0.01895556  0.74867217  0.57833499  1.0
  O  O9245  1  0.01895556  0.91533884  0.57833499  1.0
  O  O9246  1  0.10986465  0.08200550  0.57833499  1.0
  O  O9247  1  0.10986465  0.24867217  0.57833499  1.0
  O  O9248  1  0.10986465  0.41533884  0.57833499  1.0
  O  O9249  1  0.10986465  0.58200550  0.57833499  1.0
  O  O9250  1  0.10986465  0.74867217  0.57833499  1.0
  O  O9251  1  0.10986465  0.91533884  0.57833499  1.0
  O  O9252  1  0.20077374  0.08200550  0.57833499  1.0
  O  O9253  1  0.20077374  0.24867217  0.57833499  1.0
  O  O9254  1  0.20077374  0.41533884  0.57833499  1.0
  O  O9255  1  0.20077374  0.58200550  0.57833499  1.0
  O  O9256  1  0.20077374  0.74867217  0.57833499  1.0
  O  O9257  1  0.20077374  0.91533884  0.57833499  1.0
  O  O9258  1  0.29168283  0.08200550  0.57833499  1.0
  O  O9259  1  0.29168283  0.24867217  0.57833499  1.0
  O  O9260  1  0.29168283  0.41533884  0.57833499  1.0
  O  O9261  1  0.29168283  0.58200550  0.57833499  1.0
  O  O9262  1  0.29168283  0.74867217  0.57833499  1.0
  O  O9263  1  0.29168283  0.91533884  0.57833499  1.0
  O  O9264  1  0.38259192  0.08200550  0.57833499  1.0
  O  O9265  1  0.38259192  0.24867217  0.57833499  1.0
  O  O9266  1  0.38259192  0.41533884  0.57833499  1.0
  O  O9267  1  0.38259192  0.58200550  0.57833499  1.0
  O  O9268  1  0.38259192  0.74867217  0.57833499  1.0
  O  O9269  1  0.38259192  0.91533884  0.57833499  1.0
  O  O9270  1  0.47350101  0.08200550  0.57833499  1.0
  O  O9271  1  0.47350101  0.24867217  0.57833499  1.0
  O  O9272  1  0.47350101  0.41533884  0.57833499  1.0
  O  O9273  1  0.47350101  0.58200550  0.57833499  1.0
  O  O9274  1  0.47350101  0.74867217  0.57833499  1.0
  O  O9275  1  0.47350101  0.91533884  0.57833499  1.0
  O  O9276  1  0.56441010  0.08200550  0.57833499  1.0
  O  O9277  1  0.56441010  0.24867217  0.57833499  1.0
  O  O9278  1  0.56441010  0.41533884  0.57833499  1.0
  O  O9279  1  0.56441010  0.58200550  0.57833499  1.0
  O  O9280  1  0.56441010  0.74867217  0.57833499  1.0
  O  O9281  1  0.56441010  0.91533884  0.57833499  1.0
  O  O9282  1  0.65531920  0.08200550  0.57833499  1.0
  O  O9283  1  0.65531920  0.24867217  0.57833499  1.0
  O  O9284  1  0.65531920  0.41533884  0.57833499  1.0
  O  O9285  1  0.65531920  0.58200550  0.57833499  1.0
  O  O9286  1  0.65531920  0.74867217  0.57833499  1.0
  O  O9287  1  0.65531920  0.91533884  0.57833499  1.0
  O  O9288  1  0.74622829  0.08200550  0.57833499  1.0
  O  O9289  1  0.74622829  0.24867217  0.57833499  1.0
  O  O9290  1  0.74622829  0.41533884  0.57833499  1.0
  O  O9291  1  0.74622829  0.58200550  0.57833499  1.0
  O  O9292  1  0.74622829  0.74867217  0.57833499  1.0
  O  O9293  1  0.74622829  0.91533884  0.57833499  1.0
  O  O9294  1  0.83713738  0.08200550  0.57833499  1.0
  O  O9295  1  0.83713738  0.24867217  0.57833499  1.0
  O  O9296  1  0.83713738  0.41533884  0.57833499  1.0
  O  O9297  1  0.83713738  0.58200550  0.57833499  1.0
  O  O9298  1  0.83713738  0.74867217  0.57833499  1.0
  O  O9299  1  0.83713738  0.91533884  0.57833499  1.0
  O  O9300  1  0.92804647  0.08200550  0.57833499  1.0
  O  O9301  1  0.92804647  0.24867217  0.57833499  1.0
  O  O9302  1  0.92804647  0.41533884  0.57833499  1.0
  O  O9303  1  0.92804647  0.58200550  0.57833499  1.0
  O  O9304  1  0.92804647  0.74867217  0.57833499  1.0
  O  O9305  1  0.92804647  0.91533884  0.57833499  1.0
  O  O9306  1  0.06441010  0.09391026  0.50690642  1.0
  O  O9307  1  0.06441010  0.26057693  0.50690642  1.0
  O  O9308  1  0.06441010  0.42724360  0.50690642  1.0
  O  O9309  1  0.06441010  0.59391026  0.50690642  1.0
  O  O9310  1  0.06441010  0.76057693  0.50690642  1.0
  O  O9311  1  0.06441010  0.92724360  0.50690642  1.0
  O  O9312  1  0.15531920  0.09391026  0.50690642  1.0
  O  O9313  1  0.15531920  0.26057693  0.50690642  1.0
  O  O9314  1  0.15531920  0.42724360  0.50690642  1.0
  O  O9315  1  0.15531920  0.59391026  0.50690642  1.0
  O  O9316  1  0.15531920  0.76057693  0.50690642  1.0
  O  O9317  1  0.15531920  0.92724360  0.50690642  1.0
  O  O9318  1  0.24622829  0.09391026  0.50690642  1.0
  O  O9319  1  0.24622829  0.26057693  0.50690642  1.0
  O  O9320  1  0.24622829  0.42724360  0.50690642  1.0
  O  O9321  1  0.24622829  0.59391026  0.50690642  1.0
  O  O9322  1  0.24622829  0.76057693  0.50690642  1.0
  O  O9323  1  0.24622829  0.92724360  0.50690642  1.0
  O  O9324  1  0.33713738  0.09391026  0.50690642  1.0
  O  O9325  1  0.33713738  0.26057693  0.50690642  1.0
  O  O9326  1  0.33713738  0.42724360  0.50690642  1.0
  O  O9327  1  0.33713738  0.59391026  0.50690642  1.0
  O  O9328  1  0.33713738  0.76057693  0.50690642  1.0
  O  O9329  1  0.33713738  0.92724360  0.50690642  1.0
  O  O9330  1  0.42804647  0.09391026  0.50690642  1.0
  O  O9331  1  0.42804647  0.26057693  0.50690642  1.0
  O  O9332  1  0.42804647  0.42724360  0.50690642  1.0
  O  O9333  1  0.42804647  0.59391026  0.50690642  1.0
  O  O9334  1  0.42804647  0.76057693  0.50690642  1.0
  O  O9335  1  0.42804647  0.92724360  0.50690642  1.0
  O  O9336  1  0.51895556  0.09391026  0.50690642  1.0
  O  O9337  1  0.51895556  0.26057693  0.50690642  1.0
  O  O9338  1  0.51895556  0.42724360  0.50690642  1.0
  O  O9339  1  0.51895556  0.59391026  0.50690642  1.0
  O  O9340  1  0.51895556  0.76057693  0.50690642  1.0
  O  O9341  1  0.51895556  0.92724360  0.50690642  1.0
  O  O9342  1  0.60986465  0.09391026  0.50690642  1.0
  O  O9343  1  0.60986465  0.26057693  0.50690642  1.0
  O  O9344  1  0.60986465  0.42724360  0.50690642  1.0
  O  O9345  1  0.60986465  0.59391026  0.50690642  1.0
  O  O9346  1  0.60986465  0.76057693  0.50690642  1.0
  O  O9347  1  0.60986465  0.92724360  0.50690642  1.0
  O  O9348  1  0.70077374  0.09391026  0.50690642  1.0
  O  O9349  1  0.70077374  0.26057693  0.50690642  1.0
  O  O9350  1  0.70077374  0.42724360  0.50690642  1.0
  O  O9351  1  0.70077374  0.59391026  0.50690642  1.0
  O  O9352  1  0.70077374  0.76057693  0.50690642  1.0
  O  O9353  1  0.70077374  0.92724360  0.50690642  1.0
  O  O9354  1  0.79168283  0.09391026  0.50690642  1.0
  O  O9355  1  0.79168283  0.26057693  0.50690642  1.0
  O  O9356  1  0.79168283  0.42724360  0.50690642  1.0
  O  O9357  1  0.79168283  0.59391026  0.50690642  1.0
  O  O9358  1  0.79168283  0.76057693  0.50690642  1.0
  O  O9359  1  0.79168283  0.92724360  0.50690642  1.0
  O  O9360  1  0.88259192  0.09391026  0.50690642  1.0
  O  O9361  1  0.88259192  0.26057693  0.50690642  1.0
  O  O9362  1  0.88259192  0.42724360  0.50690642  1.0
  O  O9363  1  0.88259192  0.59391026  0.50690642  1.0
  O  O9364  1  0.88259192  0.76057693  0.50690642  1.0
  O  O9365  1  0.88259192  0.92724360  0.50690642  1.0
  O  O9366  1  0.97350101  0.09391026  0.50690642  1.0
  O  O9367  1  0.97350101  0.26057693  0.50690642  1.0
  O  O9368  1  0.97350101  0.42724360  0.50690642  1.0
  O  O9369  1  0.97350101  0.59391026  0.50690642  1.0
  O  O9370  1  0.97350101  0.76057693  0.50690642  1.0
  O  O9371  1  0.97350101  0.92724360  0.50690642  1.0
  O  O9372  1  0.06505624  0.08137835  0.57820666  1.0
  O  O9373  1  0.06505624  0.24804502  0.57820666  1.0
  O  O9374  1  0.06505624  0.41471169  0.57820666  1.0
  O  O9375  1  0.06505624  0.58137835  0.57820666  1.0
  O  O9376  1  0.06505624  0.74804502  0.57820666  1.0
  O  O9377  1  0.06505624  0.91471169  0.57820666  1.0
  O  O9378  1  0.15596534  0.08137835  0.57820666  1.0
  O  O9379  1  0.15596534  0.24804502  0.57820666  1.0
  O  O9380  1  0.15596534  0.41471169  0.57820666  1.0
  O  O9381  1  0.15596534  0.58137835  0.57820666  1.0
  O  O9382  1  0.15596534  0.74804502  0.57820666  1.0
  O  O9383  1  0.15596534  0.91471169  0.57820666  1.0
  O  O9384  1  0.24687443  0.08137835  0.57820666  1.0
  O  O9385  1  0.24687443  0.24804502  0.57820666  1.0
  O  O9386  1  0.24687443  0.41471169  0.57820666  1.0
  O  O9387  1  0.24687443  0.58137835  0.57820666  1.0
  O  O9388  1  0.24687443  0.74804502  0.57820666  1.0
  O  O9389  1  0.24687443  0.91471169  0.57820666  1.0
  O  O9390  1  0.33778352  0.08137835  0.57820666  1.0
  O  O9391  1  0.33778352  0.24804502  0.57820666  1.0
  O  O9392  1  0.33778352  0.41471169  0.57820666  1.0
  O  O9393  1  0.33778352  0.58137835  0.57820666  1.0
  O  O9394  1  0.33778352  0.74804502  0.57820666  1.0
  O  O9395  1  0.33778352  0.91471169  0.57820666  1.0
  O  O9396  1  0.42869261  0.08137835  0.57820666  1.0
  O  O9397  1  0.42869261  0.24804502  0.57820666  1.0
  O  O9398  1  0.42869261  0.41471169  0.57820666  1.0
  O  O9399  1  0.42869261  0.58137835  0.57820666  1.0
  O  O9400  1  0.42869261  0.74804502  0.57820666  1.0
  O  O9401  1  0.42869261  0.91471169  0.57820666  1.0
  O  O9402  1  0.51960170  0.08137835  0.57820666  1.0
  O  O9403  1  0.51960170  0.24804502  0.57820666  1.0
  O  O9404  1  0.51960170  0.41471169  0.57820666  1.0
  O  O9405  1  0.51960170  0.58137835  0.57820666  1.0
  O  O9406  1  0.51960170  0.74804502  0.57820666  1.0
  O  O9407  1  0.51960170  0.91471169  0.57820666  1.0
  O  O9408  1  0.61051079  0.08137835  0.57820666  1.0
  O  O9409  1  0.61051079  0.24804502  0.57820666  1.0
  O  O9410  1  0.61051079  0.41471169  0.57820666  1.0
  O  O9411  1  0.61051079  0.58137835  0.57820666  1.0
  O  O9412  1  0.61051079  0.74804502  0.57820666  1.0
  O  O9413  1  0.61051079  0.91471169  0.57820666  1.0
  O  O9414  1  0.70141988  0.08137835  0.57820666  1.0
  O  O9415  1  0.70141988  0.24804502  0.57820666  1.0
  O  O9416  1  0.70141988  0.41471169  0.57820666  1.0
  O  O9417  1  0.70141988  0.58137835  0.57820666  1.0
  O  O9418  1  0.70141988  0.74804502  0.57820666  1.0
  O  O9419  1  0.70141988  0.91471169  0.57820666  1.0
  O  O9420  1  0.79232897  0.08137835  0.57820666  1.0
  O  O9421  1  0.79232897  0.24804502  0.57820666  1.0
  O  O9422  1  0.79232897  0.41471169  0.57820666  1.0
  O  O9423  1  0.79232897  0.58137835  0.57820666  1.0
  O  O9424  1  0.79232897  0.74804502  0.57820666  1.0
  O  O9425  1  0.79232897  0.91471169  0.57820666  1.0
  O  O9426  1  0.88323806  0.08137835  0.57820666  1.0
  O  O9427  1  0.88323806  0.24804502  0.57820666  1.0
  O  O9428  1  0.88323806  0.41471169  0.57820666  1.0
  O  O9429  1  0.88323806  0.58137835  0.57820666  1.0
  O  O9430  1  0.88323806  0.74804502  0.57820666  1.0
  O  O9431  1  0.88323806  0.91471169  0.57820666  1.0
  O  O9432  1  0.97414715  0.08137835  0.57820666  1.0
  O  O9433  1  0.97414715  0.24804502  0.57820666  1.0
  O  O9434  1  0.97414715  0.41471169  0.57820666  1.0
  O  O9435  1  0.97414715  0.58137835  0.57820666  1.0
  O  O9436  1  0.97414715  0.74804502  0.57820666  1.0
  O  O9437  1  0.97414715  0.91471169  0.57820666  1.0
  O  O9438  1  0.01960170  0.09328312  0.50677809  1.0
  O  O9439  1  0.01960170  0.25994978  0.50677809  1.0
  O  O9440  1  0.01960170  0.42661645  0.50677809  1.0
  O  O9441  1  0.01960170  0.59328312  0.50677809  1.0
  O  O9442  1  0.01960170  0.75994978  0.50677809  1.0
  O  O9443  1  0.01960170  0.92661645  0.50677809  1.0
  O  O9444  1  0.11051079  0.09328312  0.50677809  1.0
  O  O9445  1  0.11051079  0.25994978  0.50677809  1.0
  O  O9446  1  0.11051079  0.42661645  0.50677809  1.0
  O  O9447  1  0.11051079  0.59328312  0.50677809  1.0
  O  O9448  1  0.11051079  0.75994978  0.50677809  1.0
  O  O9449  1  0.11051079  0.92661645  0.50677809  1.0
  O  O9450  1  0.20141988  0.09328312  0.50677809  1.0
  O  O9451  1  0.20141988  0.25994978  0.50677809  1.0
  O  O9452  1  0.20141988  0.42661645  0.50677809  1.0
  O  O9453  1  0.20141988  0.59328312  0.50677809  1.0
  O  O9454  1  0.20141988  0.75994978  0.50677809  1.0
  O  O9455  1  0.20141988  0.92661645  0.50677809  1.0
  O  O9456  1  0.29232897  0.09328312  0.50677809  1.0
  O  O9457  1  0.29232897  0.25994978  0.50677809  1.0
  O  O9458  1  0.29232897  0.42661645  0.50677809  1.0
  O  O9459  1  0.29232897  0.59328312  0.50677809  1.0
  O  O9460  1  0.29232897  0.75994978  0.50677809  1.0
  O  O9461  1  0.29232897  0.92661645  0.50677809  1.0
  O  O9462  1  0.38323806  0.09328312  0.50677809  1.0
  O  O9463  1  0.38323806  0.25994978  0.50677809  1.0
  O  O9464  1  0.38323806  0.42661645  0.50677809  1.0
  O  O9465  1  0.38323806  0.59328312  0.50677809  1.0
  O  O9466  1  0.38323806  0.75994978  0.50677809  1.0
  O  O9467  1  0.38323806  0.92661645  0.50677809  1.0
  O  O9468  1  0.47414715  0.09328312  0.50677809  1.0
  O  O9469  1  0.47414715  0.25994978  0.50677809  1.0
  O  O9470  1  0.47414715  0.42661645  0.50677809  1.0
  O  O9471  1  0.47414715  0.59328312  0.50677809  1.0
  O  O9472  1  0.47414715  0.75994978  0.50677809  1.0
  O  O9473  1  0.47414715  0.92661645  0.50677809  1.0
  O  O9474  1  0.56505624  0.09328312  0.50677809  1.0
  O  O9475  1  0.56505624  0.25994978  0.50677809  1.0
  O  O9476  1  0.56505624  0.42661645  0.50677809  1.0
  O  O9477  1  0.56505624  0.59328312  0.50677809  1.0
  O  O9478  1  0.56505624  0.75994978  0.50677809  1.0
  O  O9479  1  0.56505624  0.92661645  0.50677809  1.0
  O  O9480  1  0.65596534  0.09328312  0.50677809  1.0
  O  O9481  1  0.65596534  0.25994978  0.50677809  1.0
  O  O9482  1  0.65596534  0.42661645  0.50677809  1.0
  O  O9483  1  0.65596534  0.59328312  0.50677809  1.0
  O  O9484  1  0.65596534  0.75994978  0.50677809  1.0
  O  O9485  1  0.65596534  0.92661645  0.50677809  1.0
  O  O9486  1  0.74687443  0.09328312  0.50677809  1.0
  O  O9487  1  0.74687443  0.25994978  0.50677809  1.0
  O  O9488  1  0.74687443  0.42661645  0.50677809  1.0
  O  O9489  1  0.74687443  0.59328312  0.50677809  1.0
  O  O9490  1  0.74687443  0.75994978  0.50677809  1.0
  O  O9491  1  0.74687443  0.92661645  0.50677809  1.0
  O  O9492  1  0.83778352  0.09328312  0.50677809  1.0
  O  O9493  1  0.83778352  0.25994978  0.50677809  1.0
  O  O9494  1  0.83778352  0.42661645  0.50677809  1.0
  O  O9495  1  0.83778352  0.59328312  0.50677809  1.0
  O  O9496  1  0.83778352  0.75994978  0.50677809  1.0
  O  O9497  1  0.83778352  0.92661645  0.50677809  1.0
  O  O9498  1  0.92869261  0.09328312  0.50677809  1.0
  O  O9499  1  0.92869261  0.25994978  0.50677809  1.0
  O  O9500  1  0.92869261  0.42661645  0.50677809  1.0
  O  O9501  1  0.92869261  0.59328312  0.50677809  1.0
  O  O9502  1  0.92869261  0.75994978  0.50677809  1.0
  O  O9503  1  0.92869261  0.92661645  0.50677809  1.0
  O  O9504  1  0.05890792  0.03637962  0.56906614  1.0
  O  O9505  1  0.05890792  0.20304628  0.56906614  1.0
  O  O9506  1  0.05890792  0.36971295  0.56906614  1.0
  O  O9507  1  0.05890792  0.53637962  0.56906614  1.0
  O  O9508  1  0.05890792  0.70304628  0.56906614  1.0
  O  O9509  1  0.05890792  0.86971295  0.56906614  1.0
  O  O9510  1  0.14981701  0.03637962  0.56906614  1.0
  O  O9511  1  0.14981701  0.20304628  0.56906614  1.0
  O  O9512  1  0.14981701  0.36971295  0.56906614  1.0
  O  O9513  1  0.14981701  0.53637962  0.56906614  1.0
  O  O9514  1  0.14981701  0.70304628  0.56906614  1.0
  O  O9515  1  0.14981701  0.86971295  0.56906614  1.0
  O  O9516  1  0.24072610  0.03637962  0.56906614  1.0
  O  O9517  1  0.24072610  0.20304628  0.56906614  1.0
  O  O9518  1  0.24072610  0.36971295  0.56906614  1.0
  O  O9519  1  0.24072610  0.53637962  0.56906614  1.0
  O  O9520  1  0.24072610  0.70304628  0.56906614  1.0
  O  O9521  1  0.24072610  0.86971295  0.56906614  1.0
  O  O9522  1  0.33163519  0.03637962  0.56906614  1.0
  O  O9523  1  0.33163519  0.20304628  0.56906614  1.0
  O  O9524  1  0.33163519  0.36971295  0.56906614  1.0
  O  O9525  1  0.33163519  0.53637962  0.56906614  1.0
  O  O9526  1  0.33163519  0.70304628  0.56906614  1.0
  O  O9527  1  0.33163519  0.86971295  0.56906614  1.0
  O  O9528  1  0.42254428  0.03637962  0.56906614  1.0
  O  O9529  1  0.42254428  0.20304628  0.56906614  1.0
  O  O9530  1  0.42254428  0.36971295  0.56906614  1.0
  O  O9531  1  0.42254428  0.53637962  0.56906614  1.0
  O  O9532  1  0.42254428  0.70304628  0.56906614  1.0
  O  O9533  1  0.42254428  0.86971295  0.56906614  1.0
  O  O9534  1  0.51345338  0.03637962  0.56906614  1.0
  O  O9535  1  0.51345337  0.20304628  0.56906614  1.0
  O  O9536  1  0.51345337  0.36971295  0.56906614  1.0
  O  O9537  1  0.51345337  0.53637962  0.56906614  1.0
  O  O9538  1  0.51345337  0.70304628  0.56906614  1.0
  O  O9539  1  0.51345337  0.86971295  0.56906614  1.0
  O  O9540  1  0.60436247  0.03637962  0.56906614  1.0
  O  O9541  1  0.60436247  0.20304628  0.56906614  1.0
  O  O9542  1  0.60436247  0.36971295  0.56906614  1.0
  O  O9543  1  0.60436247  0.53637962  0.56906614  1.0
  O  O9544  1  0.60436247  0.70304628  0.56906614  1.0
  O  O9545  1  0.60436247  0.86971295  0.56906614  1.0
  O  O9546  1  0.69527156  0.03637962  0.56906614  1.0
  O  O9547  1  0.69527156  0.20304628  0.56906614  1.0
  O  O9548  1  0.69527156  0.36971295  0.56906614  1.0
  O  O9549  1  0.69527156  0.53637962  0.56906614  1.0
  O  O9550  1  0.69527156  0.70304628  0.56906614  1.0
  O  O9551  1  0.69527156  0.86971295  0.56906614  1.0
  O  O9552  1  0.78618065  0.03637962  0.56906614  1.0
  O  O9553  1  0.78618065  0.20304628  0.56906614  1.0
  O  O9554  1  0.78618065  0.36971295  0.56906614  1.0
  O  O9555  1  0.78618065  0.53637962  0.56906614  1.0
  O  O9556  1  0.78618065  0.70304628  0.56906614  1.0
  O  O9557  1  0.78618065  0.86971295  0.56906614  1.0
  O  O9558  1  0.87708974  0.03637962  0.56906614  1.0
  O  O9559  1  0.87708974  0.20304628  0.56906614  1.0
  O  O9560  1  0.87708974  0.36971295  0.56906614  1.0
  O  O9561  1  0.87708974  0.53637962  0.56906614  1.0
  O  O9562  1  0.87708974  0.70304628  0.56906614  1.0
  O  O9563  1  0.87708974  0.86971295  0.56906614  1.0
  O  O9564  1  0.96799883  0.03637962  0.56906614  1.0
  O  O9565  1  0.96799883  0.20304628  0.56906614  1.0
  O  O9566  1  0.96799883  0.36971295  0.56906614  1.0
  O  O9567  1  0.96799883  0.53637962  0.56906614  1.0
  O  O9568  1  0.96799883  0.70304628  0.56906614  1.0
  O  O9569  1  0.96799883  0.86971295  0.56906614  1.0
  O  O9570  1  0.01345337  0.02447485  0.64049471  1.0
  O  O9571  1  0.01345337  0.19114152  0.64049471  1.0
  O  O9572  1  0.01345337  0.35780819  0.64049471  1.0
  O  O9573  1  0.01345337  0.52447485  0.64049471  1.0
  O  O9574  1  0.01345337  0.69114152  0.64049471  1.0
  O  O9575  1  0.01345337  0.85780819  0.64049471  1.0
  O  O9576  1  0.10436247  0.02447485  0.64049471  1.0
  O  O9577  1  0.10436247  0.19114152  0.64049471  1.0
  O  O9578  1  0.10436247  0.35780819  0.64049471  1.0
  O  O9579  1  0.10436247  0.52447485  0.64049471  1.0
  O  O9580  1  0.10436247  0.69114152  0.64049471  1.0
  O  O9581  1  0.10436247  0.85780819  0.64049471  1.0
  O  O9582  1  0.19527156  0.02447485  0.64049471  1.0
  O  O9583  1  0.19527156  0.19114152  0.64049471  1.0
  O  O9584  1  0.19527156  0.35780819  0.64049471  1.0
  O  O9585  1  0.19527156  0.52447485  0.64049471  1.0
  O  O9586  1  0.19527156  0.69114152  0.64049471  1.0
  O  O9587  1  0.19527156  0.85780819  0.64049471  1.0
  O  O9588  1  0.28618065  0.02447485  0.64049471  1.0
  O  O9589  1  0.28618065  0.19114152  0.64049471  1.0
  O  O9590  1  0.28618065  0.35780819  0.64049471  1.0
  O  O9591  1  0.28618065  0.52447485  0.64049471  1.0
  O  O9592  1  0.28618065  0.69114152  0.64049471  1.0
  O  O9593  1  0.28618065  0.85780819  0.64049471  1.0
  O  O9594  1  0.37708974  0.02447485  0.64049471  1.0
  O  O9595  1  0.37708974  0.19114152  0.64049471  1.0
  O  O9596  1  0.37708974  0.35780819  0.64049471  1.0
  O  O9597  1  0.37708974  0.52447485  0.64049471  1.0
  O  O9598  1  0.37708974  0.69114152  0.64049471  1.0
  O  O9599  1  0.37708974  0.85780819  0.64049471  1.0
  O  O9600  1  0.46799883  0.02447485  0.64049471  1.0
  O  O9601  1  0.46799883  0.19114152  0.64049471  1.0
  O  O9602  1  0.46799883  0.35780819  0.64049471  1.0
  O  O9603  1  0.46799883  0.52447485  0.64049471  1.0
  O  O9604  1  0.46799883  0.69114152  0.64049471  1.0
  O  O9605  1  0.46799883  0.85780819  0.64049471  1.0
  O  O9606  1  0.55890792  0.02447485  0.64049471  1.0
  O  O9607  1  0.55890792  0.19114152  0.64049471  1.0
  O  O9608  1  0.55890792  0.35780819  0.64049471  1.0
  O  O9609  1  0.55890792  0.52447485  0.64049471  1.0
  O  O9610  1  0.55890792  0.69114152  0.64049471  1.0
  O  O9611  1  0.55890792  0.85780819  0.64049471  1.0
  O  O9612  1  0.64981701  0.02447485  0.64049471  1.0
  O  O9613  1  0.64981701  0.19114152  0.64049471  1.0
  O  O9614  1  0.64981701  0.35780819  0.64049471  1.0
  O  O9615  1  0.64981701  0.52447485  0.64049471  1.0
  O  O9616  1  0.64981701  0.69114152  0.64049471  1.0
  O  O9617  1  0.64981701  0.85780819  0.64049471  1.0
  O  O9618  1  0.74072610  0.02447485  0.64049471  1.0
  O  O9619  1  0.74072610  0.19114152  0.64049471  1.0
  O  O9620  1  0.74072610  0.35780819  0.64049471  1.0
  O  O9621  1  0.74072610  0.52447485  0.64049471  1.0
  O  O9622  1  0.74072610  0.69114152  0.64049471  1.0
  O  O9623  1  0.74072610  0.85780819  0.64049471  1.0
  O  O9624  1  0.83163519  0.02447485  0.64049471  1.0
  O  O9625  1  0.83163519  0.19114152  0.64049471  1.0
  O  O9626  1  0.83163519  0.35780819  0.64049471  1.0
  O  O9627  1  0.83163519  0.52447485  0.64049471  1.0
  O  O9628  1  0.83163519  0.69114152  0.64049471  1.0
  O  O9629  1  0.83163519  0.85780819  0.64049471  1.0
  O  O9630  1  0.92254428  0.02447485  0.64049471  1.0
  O  O9631  1  0.92254428  0.19114152  0.64049471  1.0
  O  O9632  1  0.92254428  0.35780819  0.64049471  1.0
  O  O9633  1  0.92254428  0.52447485  0.64049471  1.0
  O  O9634  1  0.92254428  0.69114152  0.64049471  1.0
  O  O9635  1  0.92254428  0.85780819  0.64049471  1.0
  O  O9636  1  0.05045578  0.15626771  0.55829581  1.0
  O  O9637  1  0.05045578  0.32293438  0.55829581  1.0
  O  O9638  1  0.05045578  0.48960104  0.55829581  1.0
  O  O9639  1  0.05045578  0.65626771  0.55829581  1.0
  O  O9640  1  0.05045578  0.82293438  0.55829581  1.0
  O  O9641  1  0.05045578  0.98960104  0.55829581  1.0
  O  O9642  1  0.14136487  0.15626771  0.55829581  1.0
  O  O9643  1  0.14136487  0.32293438  0.55829581  1.0
  O  O9644  1  0.14136487  0.48960104  0.55829581  1.0
  O  O9645  1  0.14136487  0.65626771  0.55829581  1.0
  O  O9646  1  0.14136487  0.82293438  0.55829581  1.0
  O  O9647  1  0.14136487  0.98960104  0.55829581  1.0
  O  O9648  1  0.23227396  0.15626771  0.55829581  1.0
  O  O9649  1  0.23227396  0.32293438  0.55829581  1.0
  O  O9650  1  0.23227396  0.48960104  0.55829581  1.0
  O  O9651  1  0.23227396  0.65626771  0.55829581  1.0
  O  O9652  1  0.23227396  0.82293438  0.55829581  1.0
  O  O9653  1  0.23227396  0.98960104  0.55829581  1.0
  O  O9654  1  0.32318306  0.15626771  0.55829581  1.0
  O  O9655  1  0.32318306  0.32293438  0.55829581  1.0
  O  O9656  1  0.32318306  0.48960104  0.55829581  1.0
  O  O9657  1  0.32318306  0.65626771  0.55829581  1.0
  O  O9658  1  0.32318306  0.82293438  0.55829581  1.0
  O  O9659  1  0.32318306  0.98960104  0.55829581  1.0
  O  O9660  1  0.41409215  0.15626771  0.55829581  1.0
  O  O9661  1  0.41409215  0.32293438  0.55829581  1.0
  O  O9662  1  0.41409215  0.48960104  0.55829581  1.0
  O  O9663  1  0.41409215  0.65626771  0.55829581  1.0
  O  O9664  1  0.41409215  0.82293438  0.55829581  1.0
  O  O9665  1  0.41409215  0.98960104  0.55829581  1.0
  O  O9666  1  0.50500124  0.15626771  0.55829581  1.0
  O  O9667  1  0.50500124  0.32293438  0.55829581  1.0
  O  O9668  1  0.50500124  0.48960104  0.55829581  1.0
  O  O9669  1  0.50500124  0.65626771  0.55829581  1.0
  O  O9670  1  0.50500124  0.82293438  0.55829581  1.0
  O  O9671  1  0.50500124  0.98960104  0.55829581  1.0
  O  O9672  1  0.59591033  0.15626771  0.55829581  1.0
  O  O9673  1  0.59591033  0.32293438  0.55829581  1.0
  O  O9674  1  0.59591033  0.48960104  0.55829581  1.0
  O  O9675  1  0.59591033  0.65626771  0.55829581  1.0
  O  O9676  1  0.59591033  0.82293438  0.55829581  1.0
  O  O9677  1  0.59591033  0.98960104  0.55829581  1.0
  O  O9678  1  0.68681942  0.15626771  0.55829581  1.0
  O  O9679  1  0.68681942  0.32293438  0.55829581  1.0
  O  O9680  1  0.68681942  0.48960104  0.55829581  1.0
  O  O9681  1  0.68681942  0.65626771  0.55829581  1.0
  O  O9682  1  0.68681942  0.82293438  0.55829581  1.0
  O  O9683  1  0.68681942  0.98960104  0.55829581  1.0
  O  O9684  1  0.77772851  0.15626771  0.55829581  1.0
  O  O9685  1  0.77772851  0.32293438  0.55829581  1.0
  O  O9686  1  0.77772851  0.48960104  0.55829581  1.0
  O  O9687  1  0.77772851  0.65626771  0.55829581  1.0
  O  O9688  1  0.77772851  0.82293438  0.55829581  1.0
  O  O9689  1  0.77772851  0.98960104  0.55829581  1.0
  O  O9690  1  0.86863760  0.15626771  0.55829581  1.0
  O  O9691  1  0.86863760  0.32293438  0.55829581  1.0
  O  O9692  1  0.86863760  0.48960104  0.55829581  1.0
  O  O9693  1  0.86863760  0.65626771  0.55829581  1.0
  O  O9694  1  0.86863760  0.82293438  0.55829581  1.0
  O  O9695  1  0.86863760  0.98960104  0.55829581  1.0
  O  O9696  1  0.95954669  0.15626771  0.55829581  1.0
  O  O9697  1  0.95954669  0.32293438  0.55829581  1.0
  O  O9698  1  0.95954669  0.48960104  0.55829581  1.0
  O  O9699  1  0.95954669  0.65626771  0.55829581  1.0
  O  O9700  1  0.95954669  0.82293438  0.55829581  1.0
  O  O9701  1  0.95954669  0.98960104  0.55829581  1.0
  O  O9702  1  0.00500124  0.14436295  0.62972438  1.0
  O  O9703  1  0.00500124  0.31102962  0.62972438  1.0
  O  O9704  1  0.00500124  0.47769628  0.62972438  1.0
  O  O9705  1  0.00500124  0.64436295  0.62972438  1.0
  O  O9706  1  0.00500124  0.81102962  0.62972438  1.0
  O  O9707  1  0.00500124  0.97769628  0.62972438  1.0
  O  O9708  1  0.09591033  0.14436295  0.62972438  1.0
  O  O9709  1  0.09591033  0.31102962  0.62972438  1.0
  O  O9710  1  0.09591033  0.47769628  0.62972438  1.0
  O  O9711  1  0.09591033  0.64436295  0.62972438  1.0
  O  O9712  1  0.09591033  0.81102962  0.62972438  1.0
  O  O9713  1  0.09591033  0.97769628  0.62972438  1.0
  O  O9714  1  0.18681942  0.14436295  0.62972438  1.0
  O  O9715  1  0.18681942  0.31102962  0.62972438  1.0
  O  O9716  1  0.18681942  0.47769628  0.62972438  1.0
  O  O9717  1  0.18681942  0.64436295  0.62972438  1.0
  O  O9718  1  0.18681942  0.81102962  0.62972438  1.0
  O  O9719  1  0.18681942  0.97769628  0.62972438  1.0
  O  O9720  1  0.27772851  0.14436295  0.62972438  1.0
  O  O9721  1  0.27772851  0.31102962  0.62972438  1.0
  O  O9722  1  0.27772851  0.47769628  0.62972438  1.0
  O  O9723  1  0.27772851  0.64436295  0.62972438  1.0
  O  O9724  1  0.27772851  0.81102962  0.62972438  1.0
  O  O9725  1  0.27772851  0.97769628  0.62972438  1.0
  O  O9726  1  0.36863760  0.14436295  0.62972438  1.0
  O  O9727  1  0.36863760  0.31102962  0.62972438  1.0
  O  O9728  1  0.36863760  0.47769628  0.62972438  1.0
  O  O9729  1  0.36863760  0.64436295  0.62972438  1.0
  O  O9730  1  0.36863760  0.81102962  0.62972438  1.0
  O  O9731  1  0.36863760  0.97769628  0.62972438  1.0
  O  O9732  1  0.45954669  0.14436295  0.62972438  1.0
  O  O9733  1  0.45954669  0.31102962  0.62972438  1.0
  O  O9734  1  0.45954669  0.47769628  0.62972438  1.0
  O  O9735  1  0.45954669  0.64436295  0.62972438  1.0
  O  O9736  1  0.45954669  0.81102962  0.62972438  1.0
  O  O9737  1  0.45954669  0.97769628  0.62972438  1.0
  O  O9738  1  0.55045578  0.14436295  0.62972438  1.0
  O  O9739  1  0.55045578  0.31102962  0.62972438  1.0
  O  O9740  1  0.55045578  0.47769628  0.62972438  1.0
  O  O9741  1  0.55045578  0.64436295  0.62972438  1.0
  O  O9742  1  0.55045578  0.81102962  0.62972438  1.0
  O  O9743  1  0.55045578  0.97769628  0.62972438  1.0
  O  O9744  1  0.64136487  0.14436295  0.62972438  1.0
  O  O9745  1  0.64136487  0.31102962  0.62972438  1.0
  O  O9746  1  0.64136487  0.47769628  0.62972438  1.0
  O  O9747  1  0.64136487  0.64436295  0.62972438  1.0
  O  O9748  1  0.64136487  0.81102962  0.62972438  1.0
  O  O9749  1  0.64136487  0.97769628  0.62972438  1.0
  O  O9750  1  0.73227396  0.14436295  0.62972438  1.0
  O  O9751  1  0.73227397  0.31102962  0.62972438  1.0
  O  O9752  1  0.73227397  0.47769628  0.62972438  1.0
  O  O9753  1  0.73227396  0.64436295  0.62972438  1.0
  O  O9754  1  0.73227396  0.81102962  0.62972438  1.0
  O  O9755  1  0.73227397  0.97769628  0.62972438  1.0
  O  O9756  1  0.82318306  0.14436295  0.62972438  1.0
  O  O9757  1  0.82318306  0.31102962  0.62972438  1.0
  O  O9758  1  0.82318306  0.47769628  0.62972438  1.0
  O  O9759  1  0.82318306  0.64436295  0.62972438  1.0
  O  O9760  1  0.82318306  0.81102962  0.62972438  1.0
  O  O9761  1  0.82318306  0.97769628  0.62972438  1.0
  O  O9762  1  0.91409215  0.14436295  0.62972438  1.0
  O  O9763  1  0.91409215  0.31102962  0.62972438  1.0
  O  O9764  1  0.91409215  0.47769628  0.62972438  1.0
  O  O9765  1  0.91409215  0.64436295  0.62972438  1.0
  O  O9766  1  0.91409215  0.81102962  0.62972438  1.0
  O  O9767  1  0.91409215  0.97769628  0.62972438  1.0
  O  O9768  1  0.03888059  0.05269587  0.60936119  1.0
  O  O9769  1  0.03888059  0.21936254  0.60936119  1.0
  O  O9770  1  0.03888059  0.38602920  0.60936119  1.0
  O  O9771  1  0.03888059  0.55269587  0.60936119  1.0
  O  O9772  1  0.03888059  0.71936254  0.60936119  1.0
  O  O9773  1  0.03888059  0.88602920  0.60936119  1.0
  O  O9774  1  0.12978969  0.05269587  0.60936119  1.0
  O  O9775  1  0.12978969  0.21936254  0.60936119  1.0
  O  O9776  1  0.12978969  0.38602920  0.60936119  1.0
  O  O9777  1  0.12978969  0.55269587  0.60936119  1.0
  O  O9778  1  0.12978969  0.71936254  0.60936119  1.0
  O  O9779  1  0.12978969  0.88602920  0.60936119  1.0
  O  O9780  1  0.22069878  0.05269587  0.60936119  1.0
  O  O9781  1  0.22069878  0.21936254  0.60936119  1.0
  O  O9782  1  0.22069878  0.38602920  0.60936119  1.0
  O  O9783  1  0.22069878  0.55269587  0.60936119  1.0
  O  O9784  1  0.22069878  0.71936254  0.60936119  1.0
  O  O9785  1  0.22069878  0.88602920  0.60936119  1.0
  O  O9786  1  0.31160787  0.05269587  0.60936119  1.0
  O  O9787  1  0.31160787  0.21936254  0.60936119  1.0
  O  O9788  1  0.31160787  0.38602920  0.60936119  1.0
  O  O9789  1  0.31160787  0.55269587  0.60936119  1.0
  O  O9790  1  0.31160787  0.71936254  0.60936119  1.0
  O  O9791  1  0.31160787  0.88602920  0.60936119  1.0
  O  O9792  1  0.40251696  0.05269587  0.60936119  1.0
  O  O9793  1  0.40251696  0.21936254  0.60936119  1.0
  O  O9794  1  0.40251696  0.38602920  0.60936119  1.0
  O  O9795  1  0.40251696  0.55269587  0.60936119  1.0
  O  O9796  1  0.40251696  0.71936254  0.60936119  1.0
  O  O9797  1  0.40251696  0.88602920  0.60936119  1.0
  O  O9798  1  0.49342605  0.05269587  0.60936119  1.0
  O  O9799  1  0.49342605  0.21936254  0.60936119  1.0
  O  O9800  1  0.49342605  0.38602920  0.60936119  1.0
  O  O9801  1  0.49342605  0.55269587  0.60936119  1.0
  O  O9802  1  0.49342605  0.71936254  0.60936119  1.0
  O  O9803  1  0.49342605  0.88602920  0.60936119  1.0
  O  O9804  1  0.58433514  0.05269587  0.60936119  1.0
  O  O9805  1  0.58433514  0.21936254  0.60936119  1.0
  O  O9806  1  0.58433514  0.38602920  0.60936119  1.0
  O  O9807  1  0.58433514  0.55269587  0.60936119  1.0
  O  O9808  1  0.58433514  0.71936254  0.60936119  1.0
  O  O9809  1  0.58433514  0.88602920  0.60936119  1.0
  O  O9810  1  0.67524423  0.05269587  0.60936119  1.0
  O  O9811  1  0.67524423  0.21936254  0.60936119  1.0
  O  O9812  1  0.67524423  0.38602920  0.60936119  1.0
  O  O9813  1  0.67524423  0.55269587  0.60936119  1.0
  O  O9814  1  0.67524423  0.71936254  0.60936119  1.0
  O  O9815  1  0.67524423  0.88602920  0.60936119  1.0
  O  O9816  1  0.76615332  0.05269587  0.60936119  1.0
  O  O9817  1  0.76615332  0.21936254  0.60936119  1.0
  O  O9818  1  0.76615332  0.38602920  0.60936119  1.0
  O  O9819  1  0.76615332  0.55269587  0.60936119  1.0
  O  O9820  1  0.76615332  0.71936254  0.60936119  1.0
  O  O9821  1  0.76615332  0.88602920  0.60936119  1.0
  O  O9822  1  0.85706241  0.05269587  0.60936119  1.0
  O  O9823  1  0.85706241  0.21936254  0.60936119  1.0
  O  O9824  1  0.85706241  0.38602920  0.60936119  1.0
  O  O9825  1  0.85706241  0.55269587  0.60936119  1.0
  O  O9826  1  0.85706241  0.71936254  0.60936119  1.0
  O  O9827  1  0.85706241  0.88602920  0.60936119  1.0
  O  O9828  1  0.94797150  0.05269587  0.60936119  1.0
  O  O9829  1  0.94797150  0.21936254  0.60936119  1.0
  O  O9830  1  0.94797150  0.38602920  0.60936119  1.0
  O  O9831  1  0.94797150  0.55269587  0.60936119  1.0
  O  O9832  1  0.94797150  0.71936254  0.60936119  1.0
  O  O9833  1  0.94797150  0.88602920  0.60936119  1.0
  O  O9834  1  0.08433514  0.06460063  0.53793262  1.0
  O  O9835  1  0.08433514  0.23126730  0.53793262  1.0
  O  O9836  1  0.08433514  0.39793396  0.53793262  1.0
  O  O9837  1  0.08433514  0.56460063  0.53793262  1.0
  O  O9838  1  0.08433514  0.73126730  0.53793262  1.0
  O  O9839  1  0.08433514  0.89793396  0.53793262  1.0
  O  O9840  1  0.17524423  0.06460063  0.53793262  1.0
  O  O9841  1  0.17524423  0.23126730  0.53793262  1.0
  O  O9842  1  0.17524423  0.39793396  0.53793262  1.0
  O  O9843  1  0.17524423  0.56460063  0.53793262  1.0
  O  O9844  1  0.17524423  0.73126730  0.53793262  1.0
  O  O9845  1  0.17524423  0.89793396  0.53793262  1.0
  O  O9846  1  0.26615332  0.06460063  0.53793262  1.0
  O  O9847  1  0.26615332  0.23126730  0.53793262  1.0
  O  O9848  1  0.26615332  0.39793396  0.53793262  1.0
  O  O9849  1  0.26615332  0.56460063  0.53793262  1.0
  O  O9850  1  0.26615332  0.73126730  0.53793262  1.0
  O  O9851  1  0.26615332  0.89793396  0.53793262  1.0
  O  O9852  1  0.35706241  0.06460063  0.53793262  1.0
  O  O9853  1  0.35706241  0.23126730  0.53793262  1.0
  O  O9854  1  0.35706241  0.39793396  0.53793262  1.0
  O  O9855  1  0.35706241  0.56460063  0.53793262  1.0
  O  O9856  1  0.35706241  0.73126730  0.53793262  1.0
  O  O9857  1  0.35706241  0.89793396  0.53793262  1.0
  O  O9858  1  0.44797150  0.06460063  0.53793262  1.0
  O  O9859  1  0.44797150  0.23126730  0.53793262  1.0
  O  O9860  1  0.44797150  0.39793396  0.53793262  1.0
  O  O9861  1  0.44797150  0.56460063  0.53793262  1.0
  O  O9862  1  0.44797150  0.73126730  0.53793262  1.0
  O  O9863  1  0.44797150  0.89793396  0.53793262  1.0
  O  O9864  1  0.53888059  0.06460063  0.53793262  1.0
  O  O9865  1  0.53888059  0.23126730  0.53793262  1.0
  O  O9866  1  0.53888059  0.39793396  0.53793262  1.0
  O  O9867  1  0.53888059  0.56460063  0.53793262  1.0
  O  O9868  1  0.53888059  0.73126730  0.53793262  1.0
  O  O9869  1  0.53888059  0.89793396  0.53793262  1.0
  O  O9870  1  0.62978969  0.06460063  0.53793262  1.0
  O  O9871  1  0.62978969  0.23126730  0.53793262  1.0
  O  O9872  1  0.62978969  0.39793396  0.53793262  1.0
  O  O9873  1  0.62978969  0.56460063  0.53793262  1.0
  O  O9874  1  0.62978969  0.73126730  0.53793262  1.0
  O  O9875  1  0.62978969  0.89793396  0.53793262  1.0
  O  O9876  1  0.72069878  0.06460063  0.53793262  1.0
  O  O9877  1  0.72069878  0.23126730  0.53793262  1.0
  O  O9878  1  0.72069878  0.39793396  0.53793262  1.0
  O  O9879  1  0.72069878  0.56460063  0.53793262  1.0
  O  O9880  1  0.72069878  0.73126730  0.53793262  1.0
  O  O9881  1  0.72069878  0.89793396  0.53793262  1.0
  O  O9882  1  0.81160787  0.06460063  0.53793262  1.0
  O  O9883  1  0.81160787  0.23126730  0.53793262  1.0
  O  O9884  1  0.81160787  0.39793396  0.53793262  1.0
  O  O9885  1  0.81160787  0.56460063  0.53793262  1.0
  O  O9886  1  0.81160787  0.73126730  0.53793262  1.0
  O  O9887  1  0.81160787  0.89793396  0.53793262  1.0
  O  O9888  1  0.90251696  0.06460063  0.53793262  1.0
  O  O9889  1  0.90251696  0.23126730  0.53793262  1.0
  O  O9890  1  0.90251696  0.39793396  0.53793262  1.0
  O  O9891  1  0.90251696  0.56460063  0.53793262  1.0
  O  O9892  1  0.90251696  0.73126730  0.53793262  1.0
  O  O9893  1  0.90251696  0.89793396  0.53793262  1.0
  O  O9894  1  0.99342605  0.06460063  0.53793262  1.0
  O  O9895  1  0.99342605  0.23126730  0.53793262  1.0
  O  O9896  1  0.99342605  0.39793396  0.53793262  1.0
  O  O9897  1  0.99342605  0.56460063  0.53793262  1.0
  O  O9898  1  0.99342605  0.73126730  0.53793262  1.0
  O  O9899  1  0.99342605  0.89793396  0.53793262  1.0
  O  O9900  1  0.07037231  0.12705391  0.58856712  1.0
  O  O9901  1  0.07037231  0.29372058  0.58856712  1.0
  O  O9902  1  0.07037231  0.46038724  0.58856712  1.0
  O  O9903  1  0.07037231  0.62705391  0.58856712  1.0
  O  O9904  1  0.07037231  0.79372058  0.58856712  1.0
  O  O9905  1  0.07037231  0.96038724  0.58856712  1.0
  O  O9906  1  0.16128140  0.12705391  0.58856712  1.0
  O  O9907  1  0.16128140  0.29372058  0.58856712  1.0
  O  O9908  1  0.16128140  0.46038724  0.58856712  1.0
  O  O9909  1  0.16128140  0.62705391  0.58856712  1.0
  O  O9910  1  0.16128140  0.79372058  0.58856712  1.0
  O  O9911  1  0.16128140  0.96038724  0.58856712  1.0
  O  O9912  1  0.25219049  0.12705391  0.58856712  1.0
  O  O9913  1  0.25219049  0.29372058  0.58856712  1.0
  O  O9914  1  0.25219049  0.46038724  0.58856712  1.0
  O  O9915  1  0.25219049  0.62705391  0.58856712  1.0
  O  O9916  1  0.25219049  0.79372058  0.58856712  1.0
  O  O9917  1  0.25219049  0.96038724  0.58856712  1.0
  O  O9918  1  0.34309958  0.12705391  0.58856712  1.0
  O  O9919  1  0.34309958  0.29372058  0.58856712  1.0
  O  O9920  1  0.34309958  0.46038724  0.58856712  1.0
  O  O9921  1  0.34309958  0.62705391  0.58856712  1.0
  O  O9922  1  0.34309958  0.79372058  0.58856712  1.0
  O  O9923  1  0.34309958  0.96038724  0.58856712  1.0
  O  O9924  1  0.43400867  0.12705391  0.58856712  1.0
  O  O9925  1  0.43400867  0.29372058  0.58856712  1.0
  O  O9926  1  0.43400867  0.46038724  0.58856712  1.0
  O  O9927  1  0.43400867  0.62705391  0.58856712  1.0
  O  O9928  1  0.43400867  0.79372058  0.58856712  1.0
  O  O9929  1  0.43400867  0.96038724  0.58856712  1.0
  O  O9930  1  0.52491776  0.12705391  0.58856712  1.0
  O  O9931  1  0.52491776  0.29372058  0.58856712  1.0
  O  O9932  1  0.52491776  0.46038724  0.58856712  1.0
  O  O9933  1  0.52491776  0.62705391  0.58856712  1.0
  O  O9934  1  0.52491776  0.79372058  0.58856712  1.0
  O  O9935  1  0.52491776  0.96038724  0.58856712  1.0
  O  O9936  1  0.61582685  0.12705391  0.58856712  1.0
  O  O9937  1  0.61582685  0.29372058  0.58856712  1.0
  O  O9938  1  0.61582685  0.46038724  0.58856712  1.0
  O  O9939  1  0.61582685  0.62705391  0.58856712  1.0
  O  O9940  1  0.61582685  0.79372058  0.58856712  1.0
  O  O9941  1  0.61582685  0.96038724  0.58856712  1.0
  O  O9942  1  0.70673594  0.12705391  0.58856712  1.0
  O  O9943  1  0.70673594  0.29372058  0.58856712  1.0
  O  O9944  1  0.70673594  0.46038724  0.58856712  1.0
  O  O9945  1  0.70673594  0.62705391  0.58856712  1.0
  O  O9946  1  0.70673594  0.79372058  0.58856712  1.0
  O  O9947  1  0.70673594  0.96038724  0.58856712  1.0
  O  O9948  1  0.79764504  0.12705391  0.58856712  1.0
  O  O9949  1  0.79764504  0.29372058  0.58856712  1.0
  O  O9950  1  0.79764504  0.46038724  0.58856712  1.0
  O  O9951  1  0.79764504  0.62705391  0.58856712  1.0
  O  O9952  1  0.79764504  0.79372058  0.58856712  1.0
  O  O9953  1  0.79764504  0.96038724  0.58856712  1.0
  O  O9954  1  0.88855413  0.12705391  0.58856712  1.0
  O  O9955  1  0.88855413  0.29372058  0.58856712  1.0
  O  O9956  1  0.88855413  0.46038724  0.58856712  1.0
  O  O9957  1  0.88855413  0.62705391  0.58856712  1.0
  O  O9958  1  0.88855413  0.79372058  0.58856712  1.0
  O  O9959  1  0.88855413  0.96038724  0.58856712  1.0
  O  O9960  1  0.97946322  0.12705391  0.58856712  1.0
  O  O9961  1  0.97946322  0.29372058  0.58856712  1.0
  O  O9962  1  0.97946322  0.46038724  0.58856712  1.0
  O  O9963  1  0.97946322  0.62705391  0.58856712  1.0
  O  O9964  1  0.97946322  0.79372058  0.58856712  1.0
  O  O9965  1  0.97946322  0.96038724  0.58856712  1.0
  O  O9966  1  0.02491776  0.13895867  0.51713855  1.0
  O  O9967  1  0.02491776  0.30562534  0.51713855  1.0
  O  O9968  1  0.02491776  0.47229201  0.51713855  1.0
  O  O9969  1  0.02491776  0.63895867  0.51713855  1.0
  O  O9970  1  0.02491776  0.80562534  0.51713855  1.0
  O  O9971  1  0.02491776  0.97229201  0.51713855  1.0
  O  O9972  1  0.11582685  0.13895867  0.51713855  1.0
  O  O9973  1  0.11582685  0.30562534  0.51713855  1.0
  O  O9974  1  0.11582685  0.47229201  0.51713855  1.0
  O  O9975  1  0.11582685  0.63895867  0.51713855  1.0
  O  O9976  1  0.11582685  0.80562534  0.51713855  1.0
  O  O9977  1  0.11582685  0.97229201  0.51713855  1.0
  O  O9978  1  0.20673594  0.13895867  0.51713855  1.0
  O  O9979  1  0.20673594  0.30562534  0.51713855  1.0
  O  O9980  1  0.20673594  0.47229201  0.51713855  1.0
  O  O9981  1  0.20673594  0.63895867  0.51713855  1.0
  O  O9982  1  0.20673594  0.80562534  0.51713855  1.0
  O  O9983  1  0.20673594  0.97229201  0.51713855  1.0
  O  O9984  1  0.29764504  0.13895867  0.51713855  1.0
  O  O9985  1  0.29764504  0.30562534  0.51713855  1.0
  O  O9986  1  0.29764504  0.47229201  0.51713855  1.0
  O  O9987  1  0.29764504  0.63895867  0.51713855  1.0
  O  O9988  1  0.29764504  0.80562534  0.51713855  1.0
  O  O9989  1  0.29764504  0.97229201  0.51713855  1.0
  O  O9990  1  0.38855413  0.13895867  0.51713855  1.0
  O  O9991  1  0.38855413  0.30562534  0.51713855  1.0
  O  O9992  1  0.38855413  0.47229201  0.51713855  1.0
  O  O9993  1  0.38855413  0.63895867  0.51713855  1.0
  O  O9994  1  0.38855413  0.80562534  0.51713855  1.0
  O  O9995  1  0.38855413  0.97229201  0.51713855  1.0
  O  O9996  1  0.47946322  0.13895867  0.51713855  1.0
  O  O9997  1  0.47946322  0.30562534  0.51713855  1.0
  O  O9998  1  0.47946322  0.47229201  0.51713855  1.0
  O  O9999  1  0.47946322  0.63895867  0.51713855  1.0
  O  O10000  1  0.47946322  0.80562534  0.51713855  1.0
  O  O10001  1  0.47946322  0.97229201  0.51713855  1.0
  O  O10002  1  0.57037231  0.13895867  0.51713855  1.0
  O  O10003  1  0.57037231  0.30562534  0.51713855  1.0
  O  O10004  1  0.57037231  0.47229201  0.51713855  1.0
  O  O10005  1  0.57037231  0.63895867  0.51713855  1.0
  O  O10006  1  0.57037231  0.80562534  0.51713855  1.0
  O  O10007  1  0.57037231  0.97229201  0.51713855  1.0
  O  O10008  1  0.66128140  0.13895867  0.51713855  1.0
  O  O10009  1  0.66128140  0.30562534  0.51713855  1.0
  O  O10010  1  0.66128140  0.47229201  0.51713855  1.0
  O  O10011  1  0.66128140  0.63895867  0.51713855  1.0
  O  O10012  1  0.66128140  0.80562534  0.51713855  1.0
  O  O10013  1  0.66128140  0.97229201  0.51713855  1.0
  O  O10014  1  0.75219049  0.13895867  0.51713855  1.0
  O  O10015  1  0.75219049  0.30562534  0.51713855  1.0
  O  O10016  1  0.75219049  0.47229201  0.51713855  1.0
  O  O10017  1  0.75219049  0.63895867  0.51713855  1.0
  O  O10018  1  0.75219049  0.80562534  0.51713855  1.0
  O  O10019  1  0.75219049  0.97229201  0.51713855  1.0
  O  O10020  1  0.84309958  0.13895867  0.51713855  1.0
  O  O10021  1  0.84309958  0.30562534  0.51713855  1.0
  O  O10022  1  0.84309958  0.47229201  0.51713855  1.0
  O  O10023  1  0.84309958  0.63895867  0.51713855  1.0
  O  O10024  1  0.84309958  0.80562534  0.51713855  1.0
  O  O10025  1  0.84309958  0.97229201  0.51713855  1.0
  O  O10026  1  0.93400867  0.13895867  0.51713855  1.0
  O  O10027  1  0.93400867  0.30562534  0.51713855  1.0
  O  O10028  1  0.93400867  0.47229201  0.51713855  1.0
  O  O10029  1  0.93400867  0.63895867  0.51713855  1.0
  O  O10030  1  0.93400867  0.80562534  0.51713855  1.0
  O  O10031  1  0.93400867  0.97229201  0.51713855  1.0
  O  O10032  1  0.04458126  0.09869481  0.62233639  1.0
  O  O10033  1  0.04458126  0.26536147  0.62233639  1.0
  O  O10034  1  0.04458126  0.43202814  0.62233639  1.0
  O  O10035  1  0.04458126  0.59869481  0.62233639  1.0
  O  O10036  1  0.04458126  0.76536147  0.62233639  1.0
  O  O10037  1  0.04458126  0.93202814  0.62233639  1.0
  O  O10038  1  0.13549035  0.09869481  0.62233639  1.0
  O  O10039  1  0.13549035  0.26536147  0.62233639  1.0
  O  O10040  1  0.13549035  0.43202814  0.62233639  1.0
  O  O10041  1  0.13549035  0.59869481  0.62233639  1.0
  O  O10042  1  0.13549035  0.76536147  0.62233639  1.0
  O  O10043  1  0.13549035  0.93202814  0.62233639  1.0
  O  O10044  1  0.22639944  0.09869481  0.62233639  1.0
  O  O10045  1  0.22639944  0.26536147  0.62233639  1.0
  O  O10046  1  0.22639944  0.43202814  0.62233639  1.0
  O  O10047  1  0.22639944  0.59869481  0.62233639  1.0
  O  O10048  1  0.22639944  0.76536147  0.62233639  1.0
  O  O10049  1  0.22639944  0.93202814  0.62233639  1.0
  O  O10050  1  0.31730853  0.09869481  0.62233639  1.0
  O  O10051  1  0.31730853  0.26536147  0.62233639  1.0
  O  O10052  1  0.31730853  0.43202814  0.62233639  1.0
  O  O10053  1  0.31730853  0.59869481  0.62233639  1.0
  O  O10054  1  0.31730853  0.76536147  0.62233639  1.0
  O  O10055  1  0.31730853  0.93202814  0.62233639  1.0
  O  O10056  1  0.40821762  0.09869481  0.62233639  1.0
  O  O10057  1  0.40821763  0.26536147  0.62233639  1.0
  O  O10058  1  0.40821762  0.43202814  0.62233639  1.0
  O  O10059  1  0.40821763  0.59869481  0.62233639  1.0
  O  O10060  1  0.40821762  0.76536147  0.62233639  1.0
  O  O10061  1  0.40821762  0.93202814  0.62233639  1.0
  O  O10062  1  0.49912672  0.09869481  0.62233639  1.0
  O  O10063  1  0.49912672  0.26536147  0.62233639  1.0
  O  O10064  1  0.49912672  0.43202814  0.62233639  1.0
  O  O10065  1  0.49912672  0.59869481  0.62233639  1.0
  O  O10066  1  0.49912672  0.76536147  0.62233639  1.0
  O  O10067  1  0.49912672  0.93202814  0.62233639  1.0
  O  O10068  1  0.59003581  0.09869481  0.62233639  1.0
  O  O10069  1  0.59003581  0.26536147  0.62233639  1.0
  O  O10070  1  0.59003581  0.43202814  0.62233639  1.0
  O  O10071  1  0.59003581  0.59869481  0.62233639  1.0
  O  O10072  1  0.59003581  0.76536147  0.62233639  1.0
  O  O10073  1  0.59003581  0.93202814  0.62233639  1.0
  O  O10074  1  0.68094490  0.09869481  0.62233639  1.0
  O  O10075  1  0.68094490  0.26536147  0.62233639  1.0
  O  O10076  1  0.68094490  0.43202814  0.62233639  1.0
  O  O10077  1  0.68094490  0.59869481  0.62233639  1.0
  O  O10078  1  0.68094490  0.76536147  0.62233639  1.0
  O  O10079  1  0.68094490  0.93202814  0.62233639  1.0
  O  O10080  1  0.77185399  0.09869481  0.62233639  1.0
  O  O10081  1  0.77185399  0.26536147  0.62233639  1.0
  O  O10082  1  0.77185399  0.43202814  0.62233639  1.0
  O  O10083  1  0.77185399  0.59869481  0.62233639  1.0
  O  O10084  1  0.77185399  0.76536147  0.62233639  1.0
  O  O10085  1  0.77185399  0.93202814  0.62233639  1.0
  O  O10086  1  0.86276308  0.09869481  0.62233639  1.0
  O  O10087  1  0.86276308  0.26536147  0.62233639  1.0
  O  O10088  1  0.86276308  0.43202814  0.62233639  1.0
  O  O10089  1  0.86276308  0.59869481  0.62233639  1.0
  O  O10090  1  0.86276308  0.76536147  0.62233639  1.0
  O  O10091  1  0.86276308  0.93202814  0.62233639  1.0
  O  O10092  1  0.95367217  0.09869481  0.62233639  1.0
  O  O10093  1  0.95367217  0.26536147  0.62233639  1.0
  O  O10094  1  0.95367217  0.43202814  0.62233639  1.0
  O  O10095  1  0.95367217  0.59869481  0.62233639  1.0
  O  O10096  1  0.95367217  0.76536147  0.62233639  1.0
  O  O10097  1  0.95367217  0.93202814  0.62233639  1.0
  O  O10098  1  0.09003581  0.11059957  0.55090781  1.0
  O  O10099  1  0.09003581  0.27726624  0.55090781  1.0
  O  O10100  1  0.09003581  0.44393290  0.55090781  1.0
  O  O10101  1  0.09003581  0.61059957  0.55090781  1.0
  O  O10102  1  0.09003581  0.77726624  0.55090781  1.0
  O  O10103  1  0.09003581  0.94393290  0.55090781  1.0
  O  O10104  1  0.18094490  0.11059957  0.55090781  1.0
  O  O10105  1  0.18094490  0.27726624  0.55090781  1.0
  O  O10106  1  0.18094490  0.44393290  0.55090781  1.0
  O  O10107  1  0.18094490  0.61059957  0.55090781  1.0
  O  O10108  1  0.18094490  0.77726624  0.55090781  1.0
  O  O10109  1  0.18094490  0.94393290  0.55090781  1.0
  O  O10110  1  0.27185399  0.11059957  0.55090781  1.0
  O  O10111  1  0.27185399  0.27726624  0.55090781  1.0
  O  O10112  1  0.27185399  0.44393290  0.55090781  1.0
  O  O10113  1  0.27185399  0.61059957  0.55090781  1.0
  O  O10114  1  0.27185399  0.77726624  0.55090781  1.0
  O  O10115  1  0.27185399  0.94393290  0.55090781  1.0
  O  O10116  1  0.36276308  0.11059957  0.55090781  1.0
  O  O10117  1  0.36276308  0.27726624  0.55090781  1.0
  O  O10118  1  0.36276308  0.44393290  0.55090781  1.0
  O  O10119  1  0.36276308  0.61059957  0.55090781  1.0
  O  O10120  1  0.36276308  0.77726624  0.55090781  1.0
  O  O10121  1  0.36276308  0.94393290  0.55090781  1.0
  O  O10122  1  0.45367217  0.11059957  0.55090781  1.0
  O  O10123  1  0.45367217  0.27726624  0.55090781  1.0
  O  O10124  1  0.45367217  0.44393290  0.55090781  1.0
  O  O10125  1  0.45367217  0.61059957  0.55090781  1.0
  O  O10126  1  0.45367217  0.77726624  0.55090781  1.0
  O  O10127  1  0.45367217  0.94393290  0.55090781  1.0
  O  O10128  1  0.54458126  0.11059957  0.55090781  1.0
  O  O10129  1  0.54458126  0.27726624  0.55090781  1.0
  O  O10130  1  0.54458126  0.44393290  0.55090781  1.0
  O  O10131  1  0.54458126  0.61059957  0.55090781  1.0
  O  O10132  1  0.54458126  0.77726624  0.55090781  1.0
  O  O10133  1  0.54458126  0.94393290  0.55090781  1.0
  O  O10134  1  0.63549035  0.11059957  0.55090781  1.0
  O  O10135  1  0.63549035  0.27726624  0.55090781  1.0
  O  O10136  1  0.63549035  0.44393290  0.55090781  1.0
  O  O10137  1  0.63549035  0.61059957  0.55090781  1.0
  O  O10138  1  0.63549035  0.77726624  0.55090781  1.0
  O  O10139  1  0.63549035  0.94393290  0.55090781  1.0
  O  O10140  1  0.72639944  0.11059957  0.55090781  1.0
  O  O10141  1  0.72639944  0.27726624  0.55090781  1.0
  O  O10142  1  0.72639944  0.44393290  0.55090781  1.0
  O  O10143  1  0.72639944  0.61059957  0.55090781  1.0
  O  O10144  1  0.72639944  0.77726624  0.55090781  1.0
  O  O10145  1  0.72639944  0.94393290  0.55090781  1.0
  O  O10146  1  0.81730853  0.11059957  0.55090781  1.0
  O  O10147  1  0.81730853  0.27726624  0.55090781  1.0
  O  O10148  1  0.81730853  0.44393290  0.55090781  1.0
  O  O10149  1  0.81730853  0.61059957  0.55090781  1.0
  O  O10150  1  0.81730853  0.77726624  0.55090781  1.0
  O  O10151  1  0.81730853  0.94393290  0.55090781  1.0
  O  O10152  1  0.90821763  0.11059957  0.55090781  1.0
  O  O10153  1  0.90821763  0.27726624  0.55090781  1.0
  O  O10154  1  0.90821763  0.44393290  0.55090781  1.0
  O  O10155  1  0.90821762  0.61059957  0.55090781  1.0
  O  O10156  1  0.90821763  0.77726624  0.55090781  1.0
  O  O10157  1  0.90821763  0.94393290  0.55090781  1.0
  O  O10158  1  0.99912672  0.11059957  0.55090781  1.0
  O  O10159  1  0.99912672  0.27726624  0.55090781  1.0
  O  O10160  1  0.99912672  0.44393290  0.55090781  1.0
  O  O10161  1  0.99912672  0.61059957  0.55090781  1.0
  O  O10162  1  0.99912672  0.77726624  0.55090781  1.0
  O  O10163  1  0.99912672  0.94393290  0.55090781  1.0
  O  O10164  1  0.03244008  0.00798941  0.59801731  1.0
  O  O10165  1  0.03244008  0.17465607  0.59801731  1.0
  O  O10166  1  0.03244008  0.34132274  0.59801731  1.0
  O  O10167  1  0.03244008  0.50798941  0.59801731  1.0
  O  O10168  1  0.03244008  0.67465607  0.59801731  1.0
  O  O10169  1  0.03244008  0.84132274  0.59801731  1.0
  O  O10170  1  0.12334917  0.00798941  0.59801731  1.0
  O  O10171  1  0.12334917  0.17465607  0.59801731  1.0
  O  O10172  1  0.12334917  0.34132274  0.59801731  1.0
  O  O10173  1  0.12334917  0.50798941  0.59801731  1.0
  O  O10174  1  0.12334917  0.67465607  0.59801731  1.0
  O  O10175  1  0.12334917  0.84132274  0.59801731  1.0
  O  O10176  1  0.21425826  0.00798941  0.59801731  1.0
  O  O10177  1  0.21425826  0.17465607  0.59801731  1.0
  O  O10178  1  0.21425826  0.34132274  0.59801731  1.0
  O  O10179  1  0.21425826  0.50798941  0.59801731  1.0
  O  O10180  1  0.21425826  0.67465607  0.59801731  1.0
  O  O10181  1  0.21425826  0.84132274  0.59801731  1.0
  O  O10182  1  0.30516735  0.00798941  0.59801731  1.0
  O  O10183  1  0.30516735  0.17465607  0.59801731  1.0
  O  O10184  1  0.30516735  0.34132274  0.59801731  1.0
  O  O10185  1  0.30516735  0.50798941  0.59801731  1.0
  O  O10186  1  0.30516735  0.67465607  0.59801731  1.0
  O  O10187  1  0.30516735  0.84132274  0.59801731  1.0
  O  O10188  1  0.39607644  0.00798941  0.59801731  1.0
  O  O10189  1  0.39607644  0.17465607  0.59801731  1.0
  O  O10190  1  0.39607644  0.34132274  0.59801731  1.0
  O  O10191  1  0.39607644  0.50798941  0.59801731  1.0
  O  O10192  1  0.39607644  0.67465607  0.59801731  1.0
  O  O10193  1  0.39607644  0.84132274  0.59801731  1.0
  O  O10194  1  0.48698553  0.00798941  0.59801731  1.0
  O  O10195  1  0.48698553  0.17465607  0.59801731  1.0
  O  O10196  1  0.48698553  0.34132274  0.59801731  1.0
  O  O10197  1  0.48698553  0.50798941  0.59801731  1.0
  O  O10198  1  0.48698553  0.67465607  0.59801731  1.0
  O  O10199  1  0.48698553  0.84132274  0.59801731  1.0
  O  O10200  1  0.57789462  0.00798941  0.59801731  1.0
  O  O10201  1  0.57789462  0.17465607  0.59801731  1.0
  O  O10202  1  0.57789462  0.34132274  0.59801731  1.0
  O  O10203  1  0.57789462  0.50798941  0.59801731  1.0
  O  O10204  1  0.57789462  0.67465607  0.59801731  1.0
  O  O10205  1  0.57789462  0.84132274  0.59801731  1.0
  O  O10206  1  0.66880371  0.00798941  0.59801731  1.0
  O  O10207  1  0.66880371  0.17465607  0.59801731  1.0
  O  O10208  1  0.66880371  0.34132274  0.59801731  1.0
  O  O10209  1  0.66880371  0.50798941  0.59801731  1.0
  O  O10210  1  0.66880371  0.67465607  0.59801731  1.0
  O  O10211  1  0.66880371  0.84132274  0.59801731  1.0
  O  O10212  1  0.75971280  0.00798941  0.59801731  1.0
  O  O10213  1  0.75971280  0.17465607  0.59801731  1.0
  O  O10214  1  0.75971280  0.34132274  0.59801731  1.0
  O  O10215  1  0.75971280  0.50798941  0.59801731  1.0
  O  O10216  1  0.75971280  0.67465607  0.59801731  1.0
  O  O10217  1  0.75971280  0.84132274  0.59801731  1.0
  O  O10218  1  0.85062189  0.00798941  0.59801731  1.0
  O  O10219  1  0.85062189  0.17465607  0.59801731  1.0
  O  O10220  1  0.85062189  0.34132274  0.59801731  1.0
  O  O10221  1  0.85062189  0.50798941  0.59801731  1.0
  O  O10222  1  0.85062189  0.67465607  0.59801731  1.0
  O  O10223  1  0.85062189  0.84132274  0.59801731  1.0
  O  O10224  1  0.94153099  0.00798941  0.59801731  1.0
  O  O10225  1  0.94153099  0.17465607  0.59801731  1.0
  O  O10226  1  0.94153099  0.34132274  0.59801731  1.0
  O  O10227  1  0.94153099  0.50798941  0.59801731  1.0
  O  O10228  1  0.94153099  0.67465607  0.59801731  1.0
  O  O10229  1  0.94153099  0.84132274  0.59801731  1.0
  O  O10230  1  0.07789462  0.01989417  0.52658874  1.0
  O  O10231  1  0.07789462  0.18656084  0.52658874  1.0
  O  O10232  1  0.07789462  0.35322750  0.52658874  1.0
  O  O10233  1  0.07789462  0.51989417  0.52658874  1.0
  O  O10234  1  0.07789462  0.68656084  0.52658874  1.0
  O  O10235  1  0.07789462  0.85322750  0.52658874  1.0
  O  O10236  1  0.16880371  0.01989417  0.52658874  1.0
  O  O10237  1  0.16880371  0.18656084  0.52658874  1.0
  O  O10238  1  0.16880371  0.35322750  0.52658874  1.0
  O  O10239  1  0.16880371  0.51989417  0.52658874  1.0
  O  O10240  1  0.16880371  0.68656084  0.52658874  1.0
  O  O10241  1  0.16880371  0.85322750  0.52658874  1.0
  O  O10242  1  0.25971280  0.01989417  0.52658874  1.0
  O  O10243  1  0.25971280  0.18656084  0.52658874  1.0
  O  O10244  1  0.25971280  0.35322750  0.52658874  1.0
  O  O10245  1  0.25971280  0.51989417  0.52658874  1.0
  O  O10246  1  0.25971280  0.68656084  0.52658874  1.0
  O  O10247  1  0.25971280  0.85322750  0.52658874  1.0
  O  O10248  1  0.35062189  0.01989417  0.52658874  1.0
  O  O10249  1  0.35062189  0.18656084  0.52658874  1.0
  O  O10250  1  0.35062189  0.35322750  0.52658874  1.0
  O  O10251  1  0.35062189  0.51989417  0.52658874  1.0
  O  O10252  1  0.35062189  0.68656084  0.52658874  1.0
  O  O10253  1  0.35062189  0.85322750  0.52658874  1.0
  O  O10254  1  0.44153098  0.01989417  0.52658874  1.0
  O  O10255  1  0.44153098  0.18656084  0.52658874  1.0
  O  O10256  1  0.44153098  0.35322750  0.52658874  1.0
  O  O10257  1  0.44153098  0.51989417  0.52658874  1.0
  O  O10258  1  0.44153098  0.68656084  0.52658874  1.0
  O  O10259  1  0.44153098  0.85322750  0.52658874  1.0
  O  O10260  1  0.53244008  0.01989417  0.52658874  1.0
  O  O10261  1  0.53244008  0.18656084  0.52658874  1.0
  O  O10262  1  0.53244008  0.35322750  0.52658874  1.0
  O  O10263  1  0.53244008  0.51989417  0.52658874  1.0
  O  O10264  1  0.53244008  0.68656084  0.52658874  1.0
  O  O10265  1  0.53244008  0.85322750  0.52658874  1.0
  O  O10266  1  0.62334917  0.01989417  0.52658874  1.0
  O  O10267  1  0.62334917  0.18656084  0.52658874  1.0
  O  O10268  1  0.62334917  0.35322750  0.52658874  1.0
  O  O10269  1  0.62334917  0.51989417  0.52658874  1.0
  O  O10270  1  0.62334917  0.68656084  0.52658874  1.0
  O  O10271  1  0.62334917  0.85322750  0.52658874  1.0
  O  O10272  1  0.71425826  0.01989417  0.52658874  1.0
  O  O10273  1  0.71425826  0.18656084  0.52658874  1.0
  O  O10274  1  0.71425826  0.35322750  0.52658874  1.0
  O  O10275  1  0.71425826  0.51989417  0.52658874  1.0
  O  O10276  1  0.71425826  0.68656084  0.52658874  1.0
  O  O10277  1  0.71425826  0.85322750  0.52658874  1.0
  O  O10278  1  0.80516735  0.01989417  0.52658874  1.0
  O  O10279  1  0.80516735  0.18656084  0.52658874  1.0
  O  O10280  1  0.80516735  0.35322750  0.52658874  1.0
  O  O10281  1  0.80516735  0.51989417  0.52658874  1.0
  O  O10282  1  0.80516735  0.68656084  0.52658874  1.0
  O  O10283  1  0.80516735  0.85322750  0.52658874  1.0
  O  O10284  1  0.89607644  0.01989417  0.52658874  1.0
  O  O10285  1  0.89607644  0.18656084  0.52658874  1.0
  O  O10286  1  0.89607644  0.35322750  0.52658874  1.0
  O  O10287  1  0.89607644  0.51989417  0.52658874  1.0
  O  O10288  1  0.89607644  0.68656084  0.52658874  1.0
  O  O10289  1  0.89607644  0.85322750  0.52658874  1.0
  O  O10290  1  0.98698553  0.01989417  0.52658874  1.0
  O  O10291  1  0.98698553  0.18656084  0.52658874  1.0
  O  O10292  1  0.98698553  0.35322750  0.52658874  1.0
  O  O10293  1  0.98698553  0.51989417  0.52658874  1.0
  O  O10294  1  0.98698553  0.68656084  0.52658874  1.0
  O  O10295  1  0.98698553  0.85322750  0.52658874  1.0
  O  O10296  1  0.07874726  0.00781151  0.59646274  1.0
  O  O10297  1  0.07874726  0.17447818  0.59646274  1.0
  O  O10298  1  0.07874726  0.34114484  0.59646274  1.0
  O  O10299  1  0.07874726  0.50781151  0.59646274  1.0
  O  O10300  1  0.07874726  0.67447818  0.59646274  1.0
  O  O10301  1  0.07874726  0.84114484  0.59646274  1.0
  O  O10302  1  0.16965635  0.00781151  0.59646274  1.0
  O  O10303  1  0.16965635  0.17447818  0.59646274  1.0
  O  O10304  1  0.16965635  0.34114484  0.59646274  1.0
  O  O10305  1  0.16965635  0.50781151  0.59646274  1.0
  O  O10306  1  0.16965635  0.67447818  0.59646274  1.0
  O  O10307  1  0.16965635  0.84114484  0.59646274  1.0
  O  O10308  1  0.26056544  0.00781151  0.59646274  1.0
  O  O10309  1  0.26056544  0.17447818  0.59646274  1.0
  O  O10310  1  0.26056544  0.34114484  0.59646274  1.0
  O  O10311  1  0.26056544  0.50781151  0.59646274  1.0
  O  O10312  1  0.26056544  0.67447818  0.59646274  1.0
  O  O10313  1  0.26056544  0.84114484  0.59646274  1.0
  O  O10314  1  0.35147453  0.00781151  0.59646274  1.0
  O  O10315  1  0.35147453  0.17447818  0.59646274  1.0
  O  O10316  1  0.35147453  0.34114484  0.59646274  1.0
  O  O10317  1  0.35147453  0.50781151  0.59646274  1.0
  O  O10318  1  0.35147453  0.67447818  0.59646274  1.0
  O  O10319  1  0.35147453  0.84114484  0.59646274  1.0
  O  O10320  1  0.44238362  0.00781151  0.59646274  1.0
  O  O10321  1  0.44238362  0.17447818  0.59646274  1.0
  O  O10322  1  0.44238362  0.34114484  0.59646274  1.0
  O  O10323  1  0.44238362  0.50781151  0.59646274  1.0
  O  O10324  1  0.44238362  0.67447818  0.59646274  1.0
  O  O10325  1  0.44238362  0.84114484  0.59646274  1.0
  O  O10326  1  0.53329271  0.00781151  0.59646274  1.0
  O  O10327  1  0.53329271  0.17447818  0.59646274  1.0
  O  O10328  1  0.53329271  0.34114484  0.59646274  1.0
  O  O10329  1  0.53329271  0.50781151  0.59646274  1.0
  O  O10330  1  0.53329271  0.67447818  0.59646274  1.0
  O  O10331  1  0.53329271  0.84114484  0.59646274  1.0
  O  O10332  1  0.62420180  0.00781151  0.59646274  1.0
  O  O10333  1  0.62420180  0.17447818  0.59646274  1.0
  O  O10334  1  0.62420180  0.34114484  0.59646274  1.0
  O  O10335  1  0.62420180  0.50781151  0.59646274  1.0
  O  O10336  1  0.62420180  0.67447818  0.59646274  1.0
  O  O10337  1  0.62420180  0.84114484  0.59646274  1.0
  O  O10338  1  0.71511089  0.00781151  0.59646274  1.0
  O  O10339  1  0.71511089  0.17447818  0.59646274  1.0
  O  O10340  1  0.71511089  0.34114484  0.59646274  1.0
  O  O10341  1  0.71511089  0.50781151  0.59646274  1.0
  O  O10342  1  0.71511089  0.67447818  0.59646274  1.0
  O  O10343  1  0.71511089  0.84114484  0.59646274  1.0
  O  O10344  1  0.80601998  0.00781151  0.59646274  1.0
  O  O10345  1  0.80601998  0.17447818  0.59646274  1.0
  O  O10346  1  0.80601998  0.34114484  0.59646274  1.0
  O  O10347  1  0.80601998  0.50781151  0.59646274  1.0
  O  O10348  1  0.80601998  0.67447818  0.59646274  1.0
  O  O10349  1  0.80601998  0.84114484  0.59646274  1.0
  O  O10350  1  0.89692907  0.00781151  0.59646274  1.0
  O  O10351  1  0.89692907  0.17447818  0.59646274  1.0
  O  O10352  1  0.89692907  0.34114484  0.59646274  1.0
  O  O10353  1  0.89692907  0.50781151  0.59646274  1.0
  O  O10354  1  0.89692907  0.67447818  0.59646274  1.0
  O  O10355  1  0.89692907  0.84114484  0.59646274  1.0
  O  O10356  1  0.98783817  0.00781151  0.59646274  1.0
  O  O10357  1  0.98783817  0.17447818  0.59646274  1.0
  O  O10358  1  0.98783817  0.34114484  0.59646274  1.0
  O  O10359  1  0.98783817  0.50781151  0.59646274  1.0
  O  O10360  1  0.98783817  0.67447818  0.59646274  1.0
  O  O10361  1  0.98783817  0.84114484  0.59646274  1.0
  O  O10362  1  0.03329271  0.01971627  0.52503417  1.0
  O  O10363  1  0.03329271  0.18638294  0.52503417  1.0
  O  O10364  1  0.03329271  0.35304961  0.52503417  1.0
  O  O10365  1  0.03329271  0.51971627  0.52503417  1.0
  O  O10366  1  0.03329271  0.68638294  0.52503417  1.0
  O  O10367  1  0.03329271  0.85304961  0.52503417  1.0
  O  O10368  1  0.12420180  0.01971627  0.52503417  1.0
  O  O10369  1  0.12420180  0.18638294  0.52503417  1.0
  O  O10370  1  0.12420180  0.35304961  0.52503417  1.0
  O  O10371  1  0.12420180  0.51971627  0.52503417  1.0
  O  O10372  1  0.12420180  0.68638294  0.52503417  1.0
  O  O10373  1  0.12420180  0.85304961  0.52503417  1.0
  O  O10374  1  0.21511089  0.01971627  0.52503417  1.0
  O  O10375  1  0.21511089  0.18638294  0.52503417  1.0
  O  O10376  1  0.21511089  0.35304961  0.52503417  1.0
  O  O10377  1  0.21511089  0.51971627  0.52503417  1.0
  O  O10378  1  0.21511089  0.68638294  0.52503417  1.0
  O  O10379  1  0.21511089  0.85304961  0.52503417  1.0
  O  O10380  1  0.30601998  0.01971627  0.52503417  1.0
  O  O10381  1  0.30601998  0.18638294  0.52503417  1.0
  O  O10382  1  0.30601998  0.35304961  0.52503417  1.0
  O  O10383  1  0.30601998  0.51971627  0.52503417  1.0
  O  O10384  1  0.30601998  0.68638294  0.52503417  1.0
  O  O10385  1  0.30601998  0.85304961  0.52503417  1.0
  O  O10386  1  0.39692907  0.01971627  0.52503417  1.0
  O  O10387  1  0.39692907  0.18638294  0.52503417  1.0
  O  O10388  1  0.39692907  0.35304961  0.52503417  1.0
  O  O10389  1  0.39692907  0.51971627  0.52503417  1.0
  O  O10390  1  0.39692907  0.68638294  0.52503417  1.0
  O  O10391  1  0.39692907  0.85304961  0.52503417  1.0
  O  O10392  1  0.48783817  0.01971627  0.52503417  1.0
  O  O10393  1  0.48783817  0.18638294  0.52503417  1.0
  O  O10394  1  0.48783817  0.35304961  0.52503417  1.0
  O  O10395  1  0.48783816  0.51971627  0.52503417  1.0
  O  O10396  1  0.48783816  0.68638294  0.52503417  1.0
  O  O10397  1  0.48783816  0.85304961  0.52503417  1.0
  O  O10398  1  0.57874726  0.01971627  0.52503417  1.0
  O  O10399  1  0.57874726  0.18638294  0.52503417  1.0
  O  O10400  1  0.57874726  0.35304961  0.52503417  1.0
  O  O10401  1  0.57874726  0.51971627  0.52503417  1.0
  O  O10402  1  0.57874726  0.68638294  0.52503417  1.0
  O  O10403  1  0.57874726  0.85304961  0.52503417  1.0
  O  O10404  1  0.66965635  0.01971627  0.52503417  1.0
  O  O10405  1  0.66965635  0.18638294  0.52503417  1.0
  O  O10406  1  0.66965635  0.35304961  0.52503417  1.0
  O  O10407  1  0.66965635  0.51971627  0.52503417  1.0
  O  O10408  1  0.66965635  0.68638294  0.52503417  1.0
  O  O10409  1  0.66965635  0.85304961  0.52503417  1.0
  O  O10410  1  0.76056544  0.01971627  0.52503417  1.0
  O  O10411  1  0.76056544  0.18638294  0.52503417  1.0
  O  O10412  1  0.76056544  0.35304961  0.52503417  1.0
  O  O10413  1  0.76056544  0.51971627  0.52503417  1.0
  O  O10414  1  0.76056544  0.68638294  0.52503417  1.0
  O  O10415  1  0.76056544  0.85304961  0.52503417  1.0
  O  O10416  1  0.85147453  0.01971627  0.52503417  1.0
  O  O10417  1  0.85147453  0.18638294  0.52503417  1.0
  O  O10418  1  0.85147453  0.35304961  0.52503417  1.0
  O  O10419  1  0.85147453  0.51971627  0.52503417  1.0
  O  O10420  1  0.85147453  0.68638294  0.52503417  1.0
  O  O10421  1  0.85147453  0.85304961  0.52503417  1.0
  O  O10422  1  0.94238362  0.01971627  0.52503417  1.0
  O  O10423  1  0.94238362  0.18638294  0.52503417  1.0
  O  O10424  1  0.94238362  0.35304961  0.52503417  1.0
  O  O10425  1  0.94238362  0.51971627  0.52503417  1.0
  O  O10426  1  0.94238362  0.68638294  0.52503417  1.0
  O  O10427  1  0.94238362  0.85304961  0.52503417  1.0
  O  O10428  1  0.02741305  0.12879459  0.58916220  1.0
  O  O10429  1  0.02741305  0.29546125  0.58916220  1.0
  O  O10430  1  0.02741305  0.46212792  0.58916220  1.0
  O  O10431  1  0.02741305  0.62879459  0.58916220  1.0
  O  O10432  1  0.02741305  0.79546125  0.58916220  1.0
  O  O10433  1  0.02741305  0.96212792  0.58916220  1.0
  O  O10434  1  0.11832214  0.12879459  0.58916220  1.0
  O  O10435  1  0.11832214  0.29546125  0.58916220  1.0
  O  O10436  1  0.11832214  0.46212792  0.58916220  1.0
  O  O10437  1  0.11832214  0.62879459  0.58916220  1.0
  O  O10438  1  0.11832214  0.79546125  0.58916220  1.0
  O  O10439  1  0.11832214  0.96212792  0.58916220  1.0
  O  O10440  1  0.20923123  0.12879459  0.58916220  1.0
  O  O10441  1  0.20923123  0.29546125  0.58916220  1.0
  O  O10442  1  0.20923123  0.46212792  0.58916220  1.0
  O  O10443  1  0.20923123  0.62879459  0.58916220  1.0
  O  O10444  1  0.20923123  0.79546125  0.58916220  1.0
  O  O10445  1  0.20923123  0.96212792  0.58916220  1.0
  O  O10446  1  0.30014032  0.12879459  0.58916220  1.0
  O  O10447  1  0.30014032  0.29546125  0.58916220  1.0
  O  O10448  1  0.30014032  0.46212792  0.58916220  1.0
  O  O10449  1  0.30014032  0.62879459  0.58916220  1.0
  O  O10450  1  0.30014032  0.79546125  0.58916220  1.0
  O  O10451  1  0.30014032  0.96212792  0.58916220  1.0
  O  O10452  1  0.39104941  0.12879459  0.58916220  1.0
  O  O10453  1  0.39104941  0.29546125  0.58916220  1.0
  O  O10454  1  0.39104941  0.46212792  0.58916220  1.0
  O  O10455  1  0.39104941  0.62879459  0.58916220  1.0
  O  O10456  1  0.39104941  0.79546125  0.58916220  1.0
  O  O10457  1  0.39104941  0.96212792  0.58916220  1.0
  O  O10458  1  0.48195851  0.12879459  0.58916220  1.0
  O  O10459  1  0.48195851  0.29546125  0.58916220  1.0
  O  O10460  1  0.48195851  0.46212792  0.58916220  1.0
  O  O10461  1  0.48195851  0.62879459  0.58916220  1.0
  O  O10462  1  0.48195851  0.79546125  0.58916220  1.0
  O  O10463  1  0.48195851  0.96212792  0.58916220  1.0
  O  O10464  1  0.57286760  0.12879459  0.58916220  1.0
  O  O10465  1  0.57286760  0.29546125  0.58916220  1.0
  O  O10466  1  0.57286760  0.46212792  0.58916220  1.0
  O  O10467  1  0.57286760  0.62879459  0.58916220  1.0
  O  O10468  1  0.57286760  0.79546125  0.58916220  1.0
  O  O10469  1  0.57286760  0.96212792  0.58916220  1.0
  O  O10470  1  0.66377669  0.12879459  0.58916220  1.0
  O  O10471  1  0.66377669  0.29546125  0.58916220  1.0
  O  O10472  1  0.66377669  0.46212792  0.58916220  1.0
  O  O10473  1  0.66377669  0.62879459  0.58916220  1.0
  O  O10474  1  0.66377669  0.79546125  0.58916220  1.0
  O  O10475  1  0.66377669  0.96212792  0.58916220  1.0
  O  O10476  1  0.75468578  0.12879459  0.58916220  1.0
  O  O10477  1  0.75468578  0.29546125  0.58916220  1.0
  O  O10478  1  0.75468578  0.46212792  0.58916220  1.0
  O  O10479  1  0.75468578  0.62879459  0.58916220  1.0
  O  O10480  1  0.75468578  0.79546125  0.58916220  1.0
  O  O10481  1  0.75468578  0.96212792  0.58916220  1.0
  O  O10482  1  0.84559487  0.12879459  0.58916220  1.0
  O  O10483  1  0.84559487  0.29546125  0.58916220  1.0
  O  O10484  1  0.84559487  0.46212792  0.58916220  1.0
  O  O10485  1  0.84559487  0.62879459  0.58916220  1.0
  O  O10486  1  0.84559487  0.79546125  0.58916220  1.0
  O  O10487  1  0.84559487  0.96212792  0.58916220  1.0
  O  O10488  1  0.93650396  0.12879459  0.58916220  1.0
  O  O10489  1  0.93650396  0.29546125  0.58916220  1.0
  O  O10490  1  0.93650396  0.46212792  0.58916220  1.0
  O  O10491  1  0.93650396  0.62879459  0.58916220  1.0
  O  O10492  1  0.93650396  0.79546125  0.58916220  1.0
  O  O10493  1  0.93650396  0.96212792  0.58916220  1.0
  O  O10494  1  0.07286760  0.14069935  0.51773363  1.0
  O  O10495  1  0.07286760  0.30736602  0.51773363  1.0
  O  O10496  1  0.07286760  0.47403268  0.51773363  1.0
  O  O10497  1  0.07286760  0.64069935  0.51773363  1.0
  O  O10498  1  0.07286760  0.80736602  0.51773363  1.0
  O  O10499  1  0.07286760  0.97403268  0.51773363  1.0
  O  O10500  1  0.16377669  0.14069935  0.51773363  1.0
  O  O10501  1  0.16377669  0.30736602  0.51773363  1.0
  O  O10502  1  0.16377669  0.47403268  0.51773363  1.0
  O  O10503  1  0.16377669  0.64069935  0.51773363  1.0
  O  O10504  1  0.16377669  0.80736602  0.51773363  1.0
  O  O10505  1  0.16377669  0.97403268  0.51773363  1.0
  O  O10506  1  0.25468578  0.14069935  0.51773363  1.0
  O  O10507  1  0.25468578  0.30736602  0.51773363  1.0
  O  O10508  1  0.25468578  0.47403268  0.51773363  1.0
  O  O10509  1  0.25468578  0.64069935  0.51773363  1.0
  O  O10510  1  0.25468578  0.80736602  0.51773363  1.0
  O  O10511  1  0.25468578  0.97403268  0.51773363  1.0
  O  O10512  1  0.34559487  0.14069935  0.51773363  1.0
  O  O10513  1  0.34559487  0.30736602  0.51773363  1.0
  O  O10514  1  0.34559487  0.47403268  0.51773363  1.0
  O  O10515  1  0.34559487  0.64069935  0.51773363  1.0
  O  O10516  1  0.34559487  0.80736602  0.51773363  1.0
  O  O10517  1  0.34559487  0.97403268  0.51773363  1.0
  O  O10518  1  0.43650396  0.14069935  0.51773363  1.0
  O  O10519  1  0.43650396  0.30736602  0.51773363  1.0
  O  O10520  1  0.43650396  0.47403268  0.51773363  1.0
  O  O10521  1  0.43650396  0.64069935  0.51773363  1.0
  O  O10522  1  0.43650396  0.80736602  0.51773363  1.0
  O  O10523  1  0.43650396  0.97403268  0.51773363  1.0
  O  O10524  1  0.52741305  0.14069935  0.51773363  1.0
  O  O10525  1  0.52741305  0.30736602  0.51773363  1.0
  O  O10526  1  0.52741305  0.47403268  0.51773363  1.0
  O  O10527  1  0.52741305  0.64069935  0.51773363  1.0
  O  O10528  1  0.52741305  0.80736602  0.51773363  1.0
  O  O10529  1  0.52741305  0.97403268  0.51773363  1.0
  O  O10530  1  0.61832214  0.14069935  0.51773363  1.0
  O  O10531  1  0.61832214  0.30736602  0.51773363  1.0
  O  O10532  1  0.61832214  0.47403268  0.51773363  1.0
  O  O10533  1  0.61832214  0.64069935  0.51773363  1.0
  O  O10534  1  0.61832214  0.80736602  0.51773363  1.0
  O  O10535  1  0.61832214  0.97403268  0.51773363  1.0
  O  O10536  1  0.70923123  0.14069935  0.51773363  1.0
  O  O10537  1  0.70923123  0.30736602  0.51773363  1.0
  O  O10538  1  0.70923123  0.47403268  0.51773363  1.0
  O  O10539  1  0.70923123  0.64069935  0.51773363  1.0
  O  O10540  1  0.70923123  0.80736602  0.51773363  1.0
  O  O10541  1  0.70923123  0.97403268  0.51773363  1.0
  O  O10542  1  0.80014032  0.14069935  0.51773363  1.0
  O  O10543  1  0.80014032  0.30736602  0.51773363  1.0
  O  O10544  1  0.80014032  0.47403268  0.51773363  1.0
  O  O10545  1  0.80014032  0.64069935  0.51773363  1.0
  O  O10546  1  0.80014032  0.80736602  0.51773363  1.0
  O  O10547  1  0.80014032  0.97403268  0.51773363  1.0
  O  O10548  1  0.89104941  0.14069935  0.51773363  1.0
  O  O10549  1  0.89104941  0.30736602  0.51773363  1.0
  O  O10550  1  0.89104941  0.47403268  0.51773363  1.0
  O  O10551  1  0.89104941  0.64069935  0.51773363  1.0
  O  O10552  1  0.89104941  0.80736602  0.51773363  1.0
  O  O10553  1  0.89104941  0.97403268  0.51773363  1.0
  O  O10554  1  0.98195851  0.14069935  0.51773363  1.0
  O  O10555  1  0.98195851  0.30736602  0.51773363  1.0
  O  O10556  1  0.98195851  0.47403268  0.51773363  1.0
  O  O10557  1  0.98195851  0.64069935  0.51773363  1.0
  O  O10558  1  0.98195851  0.80736602  0.51773363  1.0
  O  O10559  1  0.98195851  0.97403268  0.51773363  1.0
  O  O10560  1  0.05291745  0.14602750  0.63027945  1.0
  O  O10561  1  0.05291745  0.31269417  0.63027945  1.0
  O  O10562  1  0.05291745  0.47936083  0.63027945  1.0
  O  O10563  1  0.05291745  0.64602750  0.63027945  1.0
  O  O10564  1  0.05291745  0.81269417  0.63027945  1.0
  O  O10565  1  0.05291745  0.97936083  0.63027945  1.0
  O  O10566  1  0.14382654  0.14602750  0.63027945  1.0
  O  O10567  1  0.14382654  0.31269417  0.63027945  1.0
  O  O10568  1  0.14382654  0.47936083  0.63027945  1.0
  O  O10569  1  0.14382654  0.64602750  0.63027945  1.0
  O  O10570  1  0.14382654  0.81269417  0.63027945  1.0
  O  O10571  1  0.14382654  0.97936083  0.63027945  1.0
  O  O10572  1  0.23473563  0.14602750  0.63027945  1.0
  O  O10573  1  0.23473563  0.31269417  0.63027945  1.0
  O  O10574  1  0.23473563  0.47936083  0.63027945  1.0
  O  O10575  1  0.23473563  0.64602750  0.63027945  1.0
  O  O10576  1  0.23473563  0.81269417  0.63027945  1.0
  O  O10577  1  0.23473563  0.97936083  0.63027945  1.0
  O  O10578  1  0.32564472  0.14602750  0.63027945  1.0
  O  O10579  1  0.32564472  0.31269417  0.63027945  1.0
  O  O10580  1  0.32564472  0.47936083  0.63027945  1.0
  O  O10581  1  0.32564472  0.64602750  0.63027945  1.0
  O  O10582  1  0.32564472  0.81269417  0.63027945  1.0
  O  O10583  1  0.32564472  0.97936083  0.63027945  1.0
  O  O10584  1  0.41655381  0.14602750  0.63027945  1.0
  O  O10585  1  0.41655381  0.31269417  0.63027945  1.0
  O  O10586  1  0.41655381  0.47936083  0.63027945  1.0
  O  O10587  1  0.41655381  0.64602750  0.63027945  1.0
  O  O10588  1  0.41655381  0.81269417  0.63027945  1.0
  O  O10589  1  0.41655381  0.97936083  0.63027945  1.0
  O  O10590  1  0.50746290  0.14602750  0.63027945  1.0
  O  O10591  1  0.50746290  0.31269417  0.63027945  1.0
  O  O10592  1  0.50746290  0.47936083  0.63027945  1.0
  O  O10593  1  0.50746290  0.64602750  0.63027945  1.0
  O  O10594  1  0.50746290  0.81269417  0.63027945  1.0
  O  O10595  1  0.50746290  0.97936083  0.63027945  1.0
  O  O10596  1  0.59837200  0.14602750  0.63027945  1.0
  O  O10597  1  0.59837200  0.31269417  0.63027945  1.0
  O  O10598  1  0.59837200  0.47936083  0.63027945  1.0
  O  O10599  1  0.59837200  0.64602750  0.63027945  1.0
  O  O10600  1  0.59837200  0.81269417  0.63027945  1.0
  O  O10601  1  0.59837200  0.97936083  0.63027945  1.0
  O  O10602  1  0.68928109  0.14602750  0.63027945  1.0
  O  O10603  1  0.68928109  0.31269417  0.63027945  1.0
  O  O10604  1  0.68928109  0.47936083  0.63027945  1.0
  O  O10605  1  0.68928109  0.64602750  0.63027945  1.0
  O  O10606  1  0.68928109  0.81269417  0.63027945  1.0
  O  O10607  1  0.68928109  0.97936083  0.63027945  1.0
  O  O10608  1  0.78019018  0.14602750  0.63027945  1.0
  O  O10609  1  0.78019018  0.31269417  0.63027945  1.0
  O  O10610  1  0.78019018  0.47936083  0.63027945  1.0
  O  O10611  1  0.78019018  0.64602750  0.63027945  1.0
  O  O10612  1  0.78019018  0.81269417  0.63027945  1.0
  O  O10613  1  0.78019018  0.97936083  0.63027945  1.0
  O  O10614  1  0.87109927  0.14602750  0.63027945  1.0
  O  O10615  1  0.87109927  0.31269417  0.63027945  1.0
  O  O10616  1  0.87109927  0.47936083  0.63027945  1.0
  O  O10617  1  0.87109927  0.64602750  0.63027945  1.0
  O  O10618  1  0.87109927  0.81269417  0.63027945  1.0
  O  O10619  1  0.87109927  0.97936083  0.63027945  1.0
  O  O10620  1  0.96200836  0.14602750  0.63027945  1.0
  O  O10621  1  0.96200836  0.31269417  0.63027945  1.0
  O  O10622  1  0.96200836  0.47936083  0.63027945  1.0
  O  O10623  1  0.96200836  0.64602750  0.63027945  1.0
  O  O10624  1  0.96200836  0.81269417  0.63027945  1.0
  O  O10625  1  0.96200836  0.97936083  0.63027945  1.0
  O  O10626  1  0.00746290  0.15793226  0.55885088  1.0
  O  O10627  1  0.00746290  0.32459893  0.55885088  1.0
  O  O10628  1  0.00746290  0.49126560  0.55885088  1.0
  O  O10629  1  0.00746290  0.65793226  0.55885088  1.0
  O  O10630  1  0.00746290  0.82459893  0.55885088  1.0
  O  O10631  1  0.00746290  0.99126560  0.55885088  1.0
  O  O10632  1  0.09837200  0.15793226  0.55885088  1.0
  O  O10633  1  0.09837200  0.32459893  0.55885088  1.0
  O  O10634  1  0.09837200  0.49126560  0.55885088  1.0
  O  O10635  1  0.09837200  0.65793226  0.55885088  1.0
  O  O10636  1  0.09837200  0.82459893  0.55885088  1.0
  O  O10637  1  0.09837200  0.99126560  0.55885088  1.0
  O  O10638  1  0.18928109  0.15793226  0.55885088  1.0
  O  O10639  1  0.18928109  0.32459893  0.55885088  1.0
  O  O10640  1  0.18928109  0.49126560  0.55885088  1.0
  O  O10641  1  0.18928109  0.65793226  0.55885088  1.0
  O  O10642  1  0.18928109  0.82459893  0.55885088  1.0
  O  O10643  1  0.18928109  0.99126560  0.55885088  1.0
  O  O10644  1  0.28019018  0.15793226  0.55885088  1.0
  O  O10645  1  0.28019018  0.32459893  0.55885088  1.0
  O  O10646  1  0.28019018  0.49126560  0.55885088  1.0
  O  O10647  1  0.28019018  0.65793226  0.55885088  1.0
  O  O10648  1  0.28019018  0.82459893  0.55885088  1.0
  O  O10649  1  0.28019018  0.99126560  0.55885088  1.0
  O  O10650  1  0.37109927  0.15793226  0.55885088  1.0
  O  O10651  1  0.37109927  0.32459893  0.55885088  1.0
  O  O10652  1  0.37109927  0.49126560  0.55885088  1.0
  O  O10653  1  0.37109927  0.65793226  0.55885088  1.0
  O  O10654  1  0.37109927  0.82459893  0.55885088  1.0
  O  O10655  1  0.37109927  0.99126560  0.55885088  1.0
  O  O10656  1  0.46200836  0.15793226  0.55885088  1.0
  O  O10657  1  0.46200836  0.32459893  0.55885088  1.0
  O  O10658  1  0.46200836  0.49126560  0.55885088  1.0
  O  O10659  1  0.46200836  0.65793226  0.55885088  1.0
  O  O10660  1  0.46200836  0.82459893  0.55885088  1.0
  O  O10661  1  0.46200836  0.99126560  0.55885088  1.0
  O  O10662  1  0.55291745  0.15793226  0.55885088  1.0
  O  O10663  1  0.55291745  0.32459893  0.55885088  1.0
  O  O10664  1  0.55291745  0.49126560  0.55885088  1.0
  O  O10665  1  0.55291745  0.65793226  0.55885088  1.0
  O  O10666  1  0.55291745  0.82459893  0.55885088  1.0
  O  O10667  1  0.55291745  0.99126560  0.55885088  1.0
  O  O10668  1  0.64382654  0.15793226  0.55885088  1.0
  O  O10669  1  0.64382654  0.32459893  0.55885088  1.0
  O  O10670  1  0.64382654  0.49126560  0.55885088  1.0
  O  O10671  1  0.64382654  0.65793226  0.55885088  1.0
  O  O10672  1  0.64382654  0.82459893  0.55885088  1.0
  O  O10673  1  0.64382654  0.99126560  0.55885088  1.0
  O  O10674  1  0.73473563  0.15793226  0.55885088  1.0
  O  O10675  1  0.73473563  0.32459893  0.55885088  1.0
  O  O10676  1  0.73473563  0.49126560  0.55885088  1.0
  O  O10677  1  0.73473563  0.65793226  0.55885088  1.0
  O  O10678  1  0.73473563  0.82459893  0.55885088  1.0
  O  O10679  1  0.73473563  0.99126560  0.55885088  1.0
  O  O10680  1  0.82564472  0.15793226  0.55885088  1.0
  O  O10681  1  0.82564472  0.32459893  0.55885088  1.0
  O  O10682  1  0.82564472  0.49126560  0.55885088  1.0
  O  O10683  1  0.82564472  0.65793226  0.55885088  1.0
  O  O10684  1  0.82564472  0.82459893  0.55885088  1.0
  O  O10685  1  0.82564472  0.99126560  0.55885088  1.0
  O  O10686  1  0.91655381  0.15793226  0.55885088  1.0
  O  O10687  1  0.91655381  0.32459893  0.55885088  1.0
  O  O10688  1  0.91655381  0.49126560  0.55885088  1.0
  O  O10689  1  0.91655381  0.65793226  0.55885088  1.0
  O  O10690  1  0.91655381  0.82459893  0.55885088  1.0
  O  O10691  1  0.91655381  0.99126560  0.55885088  1.0
  O  O10692  1  0.03896435  0.04183917  0.68087710  1.0
  O  O10693  1  0.03896435  0.20850584  0.68087710  1.0
  O  O10694  1  0.03896435  0.37517250  0.68087710  1.0
  O  O10695  1  0.03896435  0.54183917  0.68087710  1.0
  O  O10696  1  0.03896435  0.70850584  0.68087710  1.0
  O  O10697  1  0.03896435  0.87517250  0.68087710  1.0
  O  O10698  1  0.12987344  0.04183917  0.68087710  1.0
  O  O10699  1  0.12987344  0.20850584  0.68087710  1.0
  O  O10700  1  0.12987344  0.37517250  0.68087710  1.0
  O  O10701  1  0.12987344  0.54183917  0.68087710  1.0
  O  O10702  1  0.12987344  0.70850584  0.68087710  1.0
  O  O10703  1  0.12987344  0.87517250  0.68087710  1.0
  O  O10704  1  0.22078253  0.04183917  0.68087710  1.0
  O  O10705  1  0.22078253  0.20850584  0.68087710  1.0
  O  O10706  1  0.22078253  0.37517250  0.68087710  1.0
  O  O10707  1  0.22078253  0.54183917  0.68087710  1.0
  O  O10708  1  0.22078253  0.70850584  0.68087710  1.0
  O  O10709  1  0.22078253  0.87517250  0.68087710  1.0
  O  O10710  1  0.31169162  0.04183917  0.68087710  1.0
  O  O10711  1  0.31169162  0.20850584  0.68087710  1.0
  O  O10712  1  0.31169162  0.37517250  0.68087710  1.0
  O  O10713  1  0.31169162  0.54183917  0.68087710  1.0
  O  O10714  1  0.31169162  0.70850584  0.68087710  1.0
  O  O10715  1  0.31169162  0.87517250  0.68087710  1.0
  O  O10716  1  0.40260071  0.04183917  0.68087710  1.0
  O  O10717  1  0.40260071  0.20850584  0.68087710  1.0
  O  O10718  1  0.40260071  0.37517250  0.68087710  1.0
  O  O10719  1  0.40260071  0.54183917  0.68087710  1.0
  O  O10720  1  0.40260071  0.70850584  0.68087710  1.0
  O  O10721  1  0.40260071  0.87517250  0.68087710  1.0
  O  O10722  1  0.49350980  0.04183917  0.68087710  1.0
  O  O10723  1  0.49350980  0.20850584  0.68087710  1.0
  O  O10724  1  0.49350980  0.37517250  0.68087710  1.0
  O  O10725  1  0.49350980  0.54183917  0.68087710  1.0
  O  O10726  1  0.49350980  0.70850584  0.68087710  1.0
  O  O10727  1  0.49350980  0.87517250  0.68087710  1.0
  O  O10728  1  0.58441889  0.04183917  0.68087710  1.0
  O  O10729  1  0.58441889  0.20850584  0.68087710  1.0
  O  O10730  1  0.58441889  0.37517250  0.68087710  1.0
  O  O10731  1  0.58441889  0.54183917  0.68087710  1.0
  O  O10732  1  0.58441889  0.70850584  0.68087710  1.0
  O  O10733  1  0.58441889  0.87517250  0.68087710  1.0
  O  O10734  1  0.67532798  0.04183917  0.68087710  1.0
  O  O10735  1  0.67532798  0.20850584  0.68087710  1.0
  O  O10736  1  0.67532798  0.37517250  0.68087710  1.0
  O  O10737  1  0.67532798  0.54183917  0.68087710  1.0
  O  O10738  1  0.67532798  0.70850584  0.68087710  1.0
  O  O10739  1  0.67532798  0.87517250  0.68087710  1.0
  O  O10740  1  0.76623707  0.04183917  0.68087710  1.0
  O  O10741  1  0.76623707  0.20850584  0.68087710  1.0
  O  O10742  1  0.76623707  0.37517250  0.68087710  1.0
  O  O10743  1  0.76623707  0.54183917  0.68087710  1.0
  O  O10744  1  0.76623707  0.70850584  0.68087710  1.0
  O  O10745  1  0.76623707  0.87517250  0.68087710  1.0
  O  O10746  1  0.85714616  0.04183917  0.68087710  1.0
  O  O10747  1  0.85714616  0.20850584  0.68087710  1.0
  O  O10748  1  0.85714616  0.37517250  0.68087710  1.0
  O  O10749  1  0.85714616  0.54183917  0.68087710  1.0
  O  O10750  1  0.85714616  0.70850584  0.68087710  1.0
  O  O10751  1  0.85714616  0.87517250  0.68087710  1.0
  O  O10752  1  0.94805525  0.04183917  0.68087710  1.0
  O  O10753  1  0.94805525  0.20850584  0.68087710  1.0
  O  O10754  1  0.94805525  0.37517250  0.68087710  1.0
  O  O10755  1  0.94805525  0.54183917  0.68087710  1.0
  O  O10756  1  0.94805525  0.70850584  0.68087710  1.0
  O  O10757  1  0.94805525  0.87517250  0.68087710  1.0
  O  O10758  1  0.04541204  0.08655905  0.69223834  1.0
  O  O10759  1  0.04541204  0.25322571  0.69223834  1.0
  O  O10760  1  0.04541204  0.41989238  0.69223834  1.0
  O  O10761  1  0.04541204  0.58655905  0.69223834  1.0
  O  O10762  1  0.04541204  0.75322571  0.69223834  1.0
  O  O10763  1  0.04541204  0.91989238  0.69223834  1.0
  O  O10764  1  0.13632113  0.08655905  0.69223834  1.0
  O  O10765  1  0.13632113  0.25322571  0.69223834  1.0
  O  O10766  1  0.13632113  0.41989238  0.69223834  1.0
  O  O10767  1  0.13632113  0.58655905  0.69223834  1.0
  O  O10768  1  0.13632113  0.75322571  0.69223834  1.0
  O  O10769  1  0.13632113  0.91989238  0.69223834  1.0
  O  O10770  1  0.22723022  0.08655905  0.69223834  1.0
  O  O10771  1  0.22723022  0.25322571  0.69223834  1.0
  O  O10772  1  0.22723022  0.41989238  0.69223834  1.0
  O  O10773  1  0.22723022  0.58655905  0.69223834  1.0
  O  O10774  1  0.22723022  0.75322571  0.69223834  1.0
  O  O10775  1  0.22723022  0.91989238  0.69223834  1.0
  O  O10776  1  0.31813931  0.08655905  0.69223834  1.0
  O  O10777  1  0.31813931  0.25322571  0.69223834  1.0
  O  O10778  1  0.31813931  0.41989238  0.69223834  1.0
  O  O10779  1  0.31813931  0.58655905  0.69223834  1.0
  O  O10780  1  0.31813931  0.75322571  0.69223834  1.0
  O  O10781  1  0.31813931  0.91989238  0.69223834  1.0
  O  O10782  1  0.40904840  0.08655905  0.69223834  1.0
  O  O10783  1  0.40904840  0.25322571  0.69223834  1.0
  O  O10784  1  0.40904840  0.41989238  0.69223834  1.0
  O  O10785  1  0.40904840  0.58655905  0.69223834  1.0
  O  O10786  1  0.40904840  0.75322571  0.69223834  1.0
  O  O10787  1  0.40904840  0.91989238  0.69223834  1.0
  O  O10788  1  0.49995749  0.08655905  0.69223834  1.0
  O  O10789  1  0.49995749  0.25322571  0.69223834  1.0
  O  O10790  1  0.49995749  0.41989238  0.69223834  1.0
  O  O10791  1  0.49995749  0.58655905  0.69223834  1.0
  O  O10792  1  0.49995749  0.75322571  0.69223834  1.0
  O  O10793  1  0.49995749  0.91989238  0.69223834  1.0
  O  O10794  1  0.59086659  0.08655905  0.69223834  1.0
  O  O10795  1  0.59086659  0.25322571  0.69223834  1.0
  O  O10796  1  0.59086659  0.41989238  0.69223834  1.0
  O  O10797  1  0.59086659  0.58655905  0.69223834  1.0
  O  O10798  1  0.59086659  0.75322571  0.69223834  1.0
  O  O10799  1  0.59086659  0.91989238  0.69223834  1.0
  O  O10800  1  0.68177568  0.08655905  0.69223834  1.0
  O  O10801  1  0.68177568  0.25322571  0.69223834  1.0
  O  O10802  1  0.68177568  0.41989238  0.69223834  1.0
  O  O10803  1  0.68177568  0.58655905  0.69223834  1.0
  O  O10804  1  0.68177568  0.75322571  0.69223834  1.0
  O  O10805  1  0.68177568  0.91989238  0.69223834  1.0
  O  O10806  1  0.77268477  0.08655905  0.69223834  1.0
  O  O10807  1  0.77268477  0.25322571  0.69223834  1.0
  O  O10808  1  0.77268477  0.41989238  0.69223834  1.0
  O  O10809  1  0.77268477  0.58655905  0.69223834  1.0
  O  O10810  1  0.77268477  0.75322571  0.69223834  1.0
  O  O10811  1  0.77268477  0.91989238  0.69223834  1.0
  O  O10812  1  0.86359386  0.08655905  0.69223834  1.0
  O  O10813  1  0.86359386  0.25322571  0.69223834  1.0
  O  O10814  1  0.86359386  0.41989238  0.69223834  1.0
  O  O10815  1  0.86359386  0.58655905  0.69223834  1.0
  O  O10816  1  0.86359386  0.75322571  0.69223834  1.0
  O  O10817  1  0.86359386  0.91989238  0.69223834  1.0
  O  O10818  1  0.95450295  0.08655905  0.69223834  1.0
  O  O10819  1  0.95450295  0.25322571  0.69223834  1.0
  O  O10820  1  0.95450295  0.41989238  0.69223834  1.0
  O  O10821  1  0.95450295  0.58655905  0.69223834  1.0
  O  O10822  1  0.95450295  0.75322571  0.69223834  1.0
  O  O10823  1  0.95450295  0.91989238  0.69223834  1.0
  O  O10824  1  0.01281294  0.01319372  0.71205258  1.0
  O  O10825  1  0.01281294  0.17986038  0.71205258  1.0
  O  O10826  1  0.01281294  0.34652705  0.71205258  1.0
  O  O10827  1  0.01281294  0.51319372  0.71205258  1.0
  O  O10828  1  0.01281294  0.67986038  0.71205258  1.0
  O  O10829  1  0.01281294  0.84652705  0.71205258  1.0
  O  O10830  1  0.10372203  0.01319372  0.71205258  1.0
  O  O10831  1  0.10372203  0.17986038  0.71205258  1.0
  O  O10832  1  0.10372203  0.34652705  0.71205258  1.0
  O  O10833  1  0.10372203  0.51319372  0.71205258  1.0
  O  O10834  1  0.10372203  0.67986038  0.71205258  1.0
  O  O10835  1  0.10372203  0.84652705  0.71205258  1.0
  O  O10836  1  0.19463112  0.01319372  0.71205258  1.0
  O  O10837  1  0.19463112  0.17986038  0.71205258  1.0
  O  O10838  1  0.19463112  0.34652705  0.71205258  1.0
  O  O10839  1  0.19463112  0.51319372  0.71205258  1.0
  O  O10840  1  0.19463112  0.67986038  0.71205258  1.0
  O  O10841  1  0.19463112  0.84652705  0.71205258  1.0
  O  O10842  1  0.28554021  0.01319372  0.71205258  1.0
  O  O10843  1  0.28554021  0.17986038  0.71205258  1.0
  O  O10844  1  0.28554021  0.34652705  0.71205258  1.0
  O  O10845  1  0.28554021  0.51319372  0.71205258  1.0
  O  O10846  1  0.28554021  0.67986038  0.71205258  1.0
  O  O10847  1  0.28554021  0.84652705  0.71205258  1.0
  O  O10848  1  0.37644930  0.01319372  0.71205258  1.0
  O  O10849  1  0.37644930  0.17986038  0.71205258  1.0
  O  O10850  1  0.37644930  0.34652705  0.71205258  1.0
  O  O10851  1  0.37644930  0.51319372  0.71205258  1.0
  O  O10852  1  0.37644930  0.67986038  0.71205258  1.0
  O  O10853  1  0.37644930  0.84652705  0.71205258  1.0
  O  O10854  1  0.46735840  0.01319372  0.71205258  1.0
  O  O10855  1  0.46735840  0.17986038  0.71205258  1.0
  O  O10856  1  0.46735840  0.34652705  0.71205258  1.0
  O  O10857  1  0.46735840  0.51319372  0.71205258  1.0
  O  O10858  1  0.46735840  0.67986038  0.71205258  1.0
  O  O10859  1  0.46735840  0.84652705  0.71205258  1.0
  O  O10860  1  0.55826749  0.01319372  0.71205258  1.0
  O  O10861  1  0.55826749  0.17986038  0.71205258  1.0
  O  O10862  1  0.55826749  0.34652705  0.71205258  1.0
  O  O10863  1  0.55826749  0.51319372  0.71205258  1.0
  O  O10864  1  0.55826749  0.67986038  0.71205258  1.0
  O  O10865  1  0.55826749  0.84652705  0.71205258  1.0
  O  O10866  1  0.64917658  0.01319372  0.71205258  1.0
  O  O10867  1  0.64917658  0.17986038  0.71205258  1.0
  O  O10868  1  0.64917658  0.34652705  0.71205258  1.0
  O  O10869  1  0.64917658  0.51319372  0.71205258  1.0
  O  O10870  1  0.64917658  0.67986038  0.71205258  1.0
  O  O10871  1  0.64917658  0.84652705  0.71205258  1.0
  O  O10872  1  0.74008567  0.01319372  0.71205258  1.0
  O  O10873  1  0.74008567  0.17986038  0.71205258  1.0
  O  O10874  1  0.74008567  0.34652705  0.71205258  1.0
  O  O10875  1  0.74008567  0.51319372  0.71205258  1.0
  O  O10876  1  0.74008567  0.67986038  0.71205258  1.0
  O  O10877  1  0.74008567  0.84652705  0.71205258  1.0
  O  O10878  1  0.83099476  0.01319372  0.71205258  1.0
  O  O10879  1  0.83099476  0.17986038  0.71205258  1.0
  O  O10880  1  0.83099476  0.34652705  0.71205258  1.0
  O  O10881  1  0.83099476  0.51319372  0.71205258  1.0
  O  O10882  1  0.83099476  0.67986038  0.71205258  1.0
  O  O10883  1  0.83099476  0.84652705  0.71205258  1.0
  O  O10884  1  0.92190385  0.01319372  0.71205258  1.0
  O  O10885  1  0.92190385  0.17986038  0.71205258  1.0
  O  O10886  1  0.92190385  0.34652705  0.71205258  1.0
  O  O10887  1  0.92190385  0.51319372  0.71205258  1.0
  O  O10888  1  0.92190385  0.67986038  0.71205258  1.0
  O  O10889  1  0.92190385  0.84652705  0.71205258  1.0
  O  O10890  1  0.06441010  0.07010074  0.64976356  1.0
  O  O10891  1  0.06441010  0.23676741  0.64976356  1.0
  O  O10892  1  0.06441010  0.40343407  0.64976356  1.0
  O  O10893  1  0.06441010  0.57010074  0.64976356  1.0
  O  O10894  1  0.06441010  0.73676741  0.64976356  1.0
  O  O10895  1  0.06441010  0.90343407  0.64976356  1.0
  O  O10896  1  0.15531920  0.07010074  0.64976356  1.0
  O  O10897  1  0.15531920  0.23676741  0.64976356  1.0
  O  O10898  1  0.15531920  0.40343407  0.64976356  1.0
  O  O10899  1  0.15531920  0.57010074  0.64976356  1.0
  O  O10900  1  0.15531920  0.73676741  0.64976356  1.0
  O  O10901  1  0.15531920  0.90343407  0.64976356  1.0
  O  O10902  1  0.24622829  0.07010074  0.64976356  1.0
  O  O10903  1  0.24622829  0.23676741  0.64976356  1.0
  O  O10904  1  0.24622829  0.40343407  0.64976356  1.0
  O  O10905  1  0.24622829  0.57010074  0.64976356  1.0
  O  O10906  1  0.24622829  0.73676741  0.64976356  1.0
  O  O10907  1  0.24622829  0.90343407  0.64976356  1.0
  O  O10908  1  0.33713738  0.07010074  0.64976356  1.0
  O  O10909  1  0.33713738  0.23676741  0.64976356  1.0
  O  O10910  1  0.33713738  0.40343407  0.64976356  1.0
  O  O10911  1  0.33713738  0.57010074  0.64976356  1.0
  O  O10912  1  0.33713738  0.73676741  0.64976356  1.0
  O  O10913  1  0.33713738  0.90343407  0.64976356  1.0
  O  O10914  1  0.42804647  0.07010074  0.64976356  1.0
  O  O10915  1  0.42804647  0.23676741  0.64976356  1.0
  O  O10916  1  0.42804647  0.40343407  0.64976356  1.0
  O  O10917  1  0.42804647  0.57010074  0.64976356  1.0
  O  O10918  1  0.42804647  0.73676741  0.64976356  1.0
  O  O10919  1  0.42804647  0.90343407  0.64976356  1.0
  O  O10920  1  0.51895556  0.07010074  0.64976356  1.0
  O  O10921  1  0.51895556  0.23676741  0.64976356  1.0
  O  O10922  1  0.51895556  0.40343407  0.64976356  1.0
  O  O10923  1  0.51895556  0.57010074  0.64976356  1.0
  O  O10924  1  0.51895556  0.73676741  0.64976356  1.0
  O  O10925  1  0.51895556  0.90343407  0.64976356  1.0
  O  O10926  1  0.60986465  0.07010074  0.64976356  1.0
  O  O10927  1  0.60986465  0.23676741  0.64976356  1.0
  O  O10928  1  0.60986465  0.40343407  0.64976356  1.0
  O  O10929  1  0.60986465  0.57010074  0.64976356  1.0
  O  O10930  1  0.60986465  0.73676741  0.64976356  1.0
  O  O10931  1  0.60986465  0.90343407  0.64976356  1.0
  O  O10932  1  0.70077374  0.07010074  0.64976356  1.0
  O  O10933  1  0.70077374  0.23676741  0.64976356  1.0
  O  O10934  1  0.70077374  0.40343407  0.64976356  1.0
  O  O10935  1  0.70077374  0.57010074  0.64976356  1.0
  O  O10936  1  0.70077374  0.73676741  0.64976356  1.0
  O  O10937  1  0.70077374  0.90343407  0.64976356  1.0
  O  O10938  1  0.79168283  0.07010074  0.64976356  1.0
  O  O10939  1  0.79168283  0.23676741  0.64976356  1.0
  O  O10940  1  0.79168283  0.40343407  0.64976356  1.0
  O  O10941  1  0.79168283  0.57010074  0.64976356  1.0
  O  O10942  1  0.79168283  0.73676741  0.64976356  1.0
  O  O10943  1  0.79168283  0.90343407  0.64976356  1.0
  O  O10944  1  0.88259192  0.07010074  0.64976356  1.0
  O  O10945  1  0.88259192  0.23676741  0.64976356  1.0
  O  O10946  1  0.88259192  0.40343407  0.64976356  1.0
  O  O10947  1  0.88259192  0.57010074  0.64976356  1.0
  O  O10948  1  0.88259192  0.73676741  0.64976356  1.0
  O  O10949  1  0.88259192  0.90343407  0.64976356  1.0
  O  O10950  1  0.97350101  0.07010074  0.64976356  1.0
  O  O10951  1  0.97350101  0.23676741  0.64976356  1.0
  O  O10952  1  0.97350101  0.40343407  0.64976356  1.0
  O  O10953  1  0.97350101  0.57010074  0.64976356  1.0
  O  O10954  1  0.97350101  0.73676741  0.64976356  1.0
  O  O10955  1  0.97350101  0.90343407  0.64976356  1.0
  O  O10956  1  0.01960170  0.06947359  0.64963523  1.0
  O  O10957  1  0.01960170  0.23614026  0.64963523  1.0
  O  O10958  1  0.01960170  0.40280693  0.64963523  1.0
  O  O10959  1  0.01960170  0.56947359  0.64963523  1.0
  O  O10960  1  0.01960170  0.73614026  0.64963523  1.0
  O  O10961  1  0.01960170  0.90280693  0.64963523  1.0
  O  O10962  1  0.11051079  0.06947359  0.64963523  1.0
  O  O10963  1  0.11051079  0.23614026  0.64963523  1.0
  O  O10964  1  0.11051079  0.40280693  0.64963523  1.0
  O  O10965  1  0.11051079  0.56947359  0.64963523  1.0
  O  O10966  1  0.11051079  0.73614026  0.64963523  1.0
  O  O10967  1  0.11051079  0.90280693  0.64963523  1.0
  O  O10968  1  0.20141988  0.06947359  0.64963523  1.0
  O  O10969  1  0.20141988  0.23614026  0.64963523  1.0
  O  O10970  1  0.20141988  0.40280693  0.64963523  1.0
  O  O10971  1  0.20141988  0.56947359  0.64963523  1.0
  O  O10972  1  0.20141988  0.73614026  0.64963523  1.0
  O  O10973  1  0.20141988  0.90280693  0.64963523  1.0
  O  O10974  1  0.29232897  0.06947359  0.64963523  1.0
  O  O10975  1  0.29232897  0.23614026  0.64963523  1.0
  O  O10976  1  0.29232897  0.40280693  0.64963523  1.0
  O  O10977  1  0.29232897  0.56947359  0.64963523  1.0
  O  O10978  1  0.29232897  0.73614026  0.64963523  1.0
  O  O10979  1  0.29232897  0.90280693  0.64963523  1.0
  O  O10980  1  0.38323806  0.06947359  0.64963523  1.0
  O  O10981  1  0.38323806  0.23614026  0.64963523  1.0
  O  O10982  1  0.38323806  0.40280693  0.64963523  1.0
  O  O10983  1  0.38323806  0.56947359  0.64963523  1.0
  O  O10984  1  0.38323806  0.73614026  0.64963523  1.0
  O  O10985  1  0.38323806  0.90280693  0.64963523  1.0
  O  O10986  1  0.47414715  0.06947359  0.64963523  1.0
  O  O10987  1  0.47414715  0.23614026  0.64963523  1.0
  O  O10988  1  0.47414715  0.40280693  0.64963523  1.0
  O  O10989  1  0.47414715  0.56947359  0.64963523  1.0
  O  O10990  1  0.47414715  0.73614026  0.64963523  1.0
  O  O10991  1  0.47414715  0.90280693  0.64963523  1.0
  O  O10992  1  0.56505624  0.06947359  0.64963523  1.0
  O  O10993  1  0.56505624  0.23614026  0.64963523  1.0
  O  O10994  1  0.56505624  0.40280693  0.64963523  1.0
  O  O10995  1  0.56505624  0.56947359  0.64963523  1.0
  O  O10996  1  0.56505624  0.73614026  0.64963523  1.0
  O  O10997  1  0.56505624  0.90280693  0.64963523  1.0
  O  O10998  1  0.65596534  0.06947359  0.64963523  1.0
  O  O10999  1  0.65596534  0.23614026  0.64963523  1.0
  O  O11000  1  0.65596534  0.40280693  0.64963523  1.0
  O  O11001  1  0.65596534  0.56947359  0.64963523  1.0
  O  O11002  1  0.65596534  0.73614026  0.64963523  1.0
  O  O11003  1  0.65596534  0.90280693  0.64963523  1.0
  O  O11004  1  0.74687443  0.06947359  0.64963523  1.0
  O  O11005  1  0.74687443  0.23614026  0.64963523  1.0
  O  O11006  1  0.74687443  0.40280693  0.64963523  1.0
  O  O11007  1  0.74687443  0.56947359  0.64963523  1.0
  O  O11008  1  0.74687443  0.73614026  0.64963523  1.0
  O  O11009  1  0.74687443  0.90280693  0.64963523  1.0
  O  O11010  1  0.83778352  0.06947359  0.64963523  1.0
  O  O11011  1  0.83778352  0.23614026  0.64963523  1.0
  O  O11012  1  0.83778352  0.40280693  0.64963523  1.0
  O  O11013  1  0.83778352  0.56947359  0.64963523  1.0
  O  O11014  1  0.83778352  0.73614026  0.64963523  1.0
  O  O11015  1  0.83778352  0.90280693  0.64963523  1.0
  O  O11016  1  0.92869261  0.06947359  0.64963523  1.0
  O  O11017  1  0.92869261  0.23614026  0.64963523  1.0
  O  O11018  1  0.92869261  0.40280693  0.64963523  1.0
  O  O11019  1  0.92869261  0.56947359  0.64963523  1.0
  O  O11020  1  0.92869261  0.73614026  0.64963523  1.0
  O  O11021  1  0.92869261  0.90280693  0.64963523  1.0
  O  O11022  1  0.05890792  0.01257009  0.71192328  1.0
  O  O11023  1  0.05890792  0.17923676  0.71192328  1.0
  O  O11024  1  0.05890792  0.34590343  0.71192328  1.0
  O  O11025  1  0.05890792  0.51257009  0.71192328  1.0
  O  O11026  1  0.05890792  0.67923676  0.71192328  1.0
  O  O11027  1  0.05890792  0.84590343  0.71192328  1.0
  O  O11028  1  0.14981701  0.01257009  0.71192328  1.0
  O  O11029  1  0.14981701  0.17923676  0.71192328  1.0
  O  O11030  1  0.14981701  0.34590343  0.71192328  1.0
  O  O11031  1  0.14981701  0.51257009  0.71192328  1.0
  O  O11032  1  0.14981701  0.67923676  0.71192328  1.0
  O  O11033  1  0.14981701  0.84590343  0.71192328  1.0
  O  O11034  1  0.24072610  0.01257009  0.71192328  1.0
  O  O11035  1  0.24072610  0.17923676  0.71192328  1.0
  O  O11036  1  0.24072610  0.34590343  0.71192328  1.0
  O  O11037  1  0.24072610  0.51257009  0.71192328  1.0
  O  O11038  1  0.24072610  0.67923676  0.71192328  1.0
  O  O11039  1  0.24072610  0.84590343  0.71192328  1.0
  O  O11040  1  0.33163519  0.01257009  0.71192328  1.0
  O  O11041  1  0.33163519  0.17923676  0.71192328  1.0
  O  O11042  1  0.33163519  0.34590343  0.71192328  1.0
  O  O11043  1  0.33163519  0.51257009  0.71192328  1.0
  O  O11044  1  0.33163519  0.67923676  0.71192328  1.0
  O  O11045  1  0.33163519  0.84590343  0.71192328  1.0
  O  O11046  1  0.42254428  0.01257009  0.71192328  1.0
  O  O11047  1  0.42254428  0.17923676  0.71192328  1.0
  O  O11048  1  0.42254428  0.34590343  0.71192328  1.0
  O  O11049  1  0.42254428  0.51257009  0.71192328  1.0
  O  O11050  1  0.42254428  0.67923676  0.71192328  1.0
  O  O11051  1  0.42254428  0.84590343  0.71192328  1.0
  O  O11052  1  0.51345338  0.01257009  0.71192328  1.0
  O  O11053  1  0.51345337  0.17923676  0.71192328  1.0
  O  O11054  1  0.51345337  0.34590343  0.71192328  1.0
  O  O11055  1  0.51345337  0.51257009  0.71192328  1.0
  O  O11056  1  0.51345337  0.67923676  0.71192328  1.0
  O  O11057  1  0.51345337  0.84590343  0.71192328  1.0
  O  O11058  1  0.60436247  0.01257009  0.71192328  1.0
  O  O11059  1  0.60436247  0.17923676  0.71192328  1.0
  O  O11060  1  0.60436247  0.34590343  0.71192328  1.0
  O  O11061  1  0.60436247  0.51257009  0.71192328  1.0
  O  O11062  1  0.60436247  0.67923676  0.71192328  1.0
  O  O11063  1  0.60436247  0.84590343  0.71192328  1.0
  O  O11064  1  0.69527156  0.01257009  0.71192328  1.0
  O  O11065  1  0.69527156  0.17923676  0.71192328  1.0
  O  O11066  1  0.69527156  0.34590343  0.71192328  1.0
  O  O11067  1  0.69527156  0.51257009  0.71192328  1.0
  O  O11068  1  0.69527156  0.67923676  0.71192328  1.0
  O  O11069  1  0.69527156  0.84590343  0.71192328  1.0
  O  O11070  1  0.78618065  0.01257009  0.71192328  1.0
  O  O11071  1  0.78618065  0.17923676  0.71192328  1.0
  O  O11072  1  0.78618065  0.34590343  0.71192328  1.0
  O  O11073  1  0.78618065  0.51257009  0.71192328  1.0
  O  O11074  1  0.78618065  0.67923676  0.71192328  1.0
  O  O11075  1  0.78618065  0.84590343  0.71192328  1.0
  O  O11076  1  0.87708974  0.01257009  0.71192328  1.0
  O  O11077  1  0.87708974  0.17923676  0.71192328  1.0
  O  O11078  1  0.87708974  0.34590343  0.71192328  1.0
  O  O11079  1  0.87708974  0.51257009  0.71192328  1.0
  O  O11080  1  0.87708974  0.67923676  0.71192328  1.0
  O  O11081  1  0.87708974  0.84590343  0.71192328  1.0
  O  O11082  1  0.96799883  0.01257009  0.71192328  1.0
  O  O11083  1  0.96799883  0.17923676  0.71192328  1.0
  O  O11084  1  0.96799883  0.34590343  0.71192328  1.0
  O  O11085  1  0.96799883  0.51257009  0.71192328  1.0
  O  O11086  1  0.96799883  0.67923676  0.71192328  1.0
  O  O11087  1  0.96799883  0.84590343  0.71192328  1.0
  O  O11088  1  0.05045578  0.13245819  0.70115295  1.0
  O  O11089  1  0.05045578  0.29912485  0.70115295  1.0
  O  O11090  1  0.05045578  0.46579152  0.70115295  1.0
  O  O11091  1  0.05045578  0.63245819  0.70115295  1.0
  O  O11092  1  0.05045578  0.79912485  0.70115295  1.0
  O  O11093  1  0.05045578  0.96579152  0.70115295  1.0
  O  O11094  1  0.14136487  0.13245819  0.70115295  1.0
  O  O11095  1  0.14136487  0.29912485  0.70115295  1.0
  O  O11096  1  0.14136487  0.46579152  0.70115295  1.0
  O  O11097  1  0.14136487  0.63245819  0.70115295  1.0
  O  O11098  1  0.14136487  0.79912485  0.70115295  1.0
  O  O11099  1  0.14136487  0.96579152  0.70115295  1.0
  O  O11100  1  0.23227396  0.13245819  0.70115295  1.0
  O  O11101  1  0.23227396  0.29912485  0.70115295  1.0
  O  O11102  1  0.23227396  0.46579152  0.70115295  1.0
  O  O11103  1  0.23227396  0.63245819  0.70115295  1.0
  O  O11104  1  0.23227396  0.79912485  0.70115295  1.0
  O  O11105  1  0.23227396  0.96579152  0.70115295  1.0
  O  O11106  1  0.32318306  0.13245819  0.70115295  1.0
  O  O11107  1  0.32318306  0.29912485  0.70115295  1.0
  O  O11108  1  0.32318306  0.46579152  0.70115295  1.0
  O  O11109  1  0.32318306  0.63245819  0.70115295  1.0
  O  O11110  1  0.32318306  0.79912485  0.70115295  1.0
  O  O11111  1  0.32318306  0.96579152  0.70115295  1.0
  O  O11112  1  0.41409215  0.13245819  0.70115295  1.0
  O  O11113  1  0.41409215  0.29912485  0.70115295  1.0
  O  O11114  1  0.41409215  0.46579152  0.70115295  1.0
  O  O11115  1  0.41409215  0.63245819  0.70115295  1.0
  O  O11116  1  0.41409215  0.79912485  0.70115295  1.0
  O  O11117  1  0.41409215  0.96579152  0.70115295  1.0
  O  O11118  1  0.50500124  0.13245819  0.70115295  1.0
  O  O11119  1  0.50500124  0.29912485  0.70115295  1.0
  O  O11120  1  0.50500124  0.46579152  0.70115295  1.0
  O  O11121  1  0.50500124  0.63245819  0.70115295  1.0
  O  O11122  1  0.50500124  0.79912485  0.70115295  1.0
  O  O11123  1  0.50500124  0.96579152  0.70115295  1.0
  O  O11124  1  0.59591033  0.13245819  0.70115295  1.0
  O  O11125  1  0.59591033  0.29912485  0.70115295  1.0
  O  O11126  1  0.59591033  0.46579152  0.70115295  1.0
  O  O11127  1  0.59591033  0.63245819  0.70115295  1.0
  O  O11128  1  0.59591033  0.79912485  0.70115295  1.0
  O  O11129  1  0.59591033  0.96579152  0.70115295  1.0
  O  O11130  1  0.68681942  0.13245819  0.70115295  1.0
  O  O11131  1  0.68681942  0.29912485  0.70115295  1.0
  O  O11132  1  0.68681942  0.46579152  0.70115295  1.0
  O  O11133  1  0.68681942  0.63245819  0.70115295  1.0
  O  O11134  1  0.68681942  0.79912485  0.70115295  1.0
  O  O11135  1  0.68681942  0.96579152  0.70115295  1.0
  O  O11136  1  0.77772851  0.13245819  0.70115295  1.0
  O  O11137  1  0.77772851  0.29912485  0.70115295  1.0
  O  O11138  1  0.77772851  0.46579152  0.70115295  1.0
  O  O11139  1  0.77772851  0.63245819  0.70115295  1.0
  O  O11140  1  0.77772851  0.79912485  0.70115295  1.0
  O  O11141  1  0.77772851  0.96579152  0.70115295  1.0
  O  O11142  1  0.86863760  0.13245819  0.70115295  1.0
  O  O11143  1  0.86863760  0.29912485  0.70115295  1.0
  O  O11144  1  0.86863760  0.46579152  0.70115295  1.0
  O  O11145  1  0.86863760  0.63245819  0.70115295  1.0
  O  O11146  1  0.86863760  0.79912485  0.70115295  1.0
  O  O11147  1  0.86863760  0.96579152  0.70115295  1.0
  O  O11148  1  0.95954669  0.13245819  0.70115295  1.0
  O  O11149  1  0.95954669  0.29912485  0.70115295  1.0
  O  O11150  1  0.95954669  0.46579152  0.70115295  1.0
  O  O11151  1  0.95954669  0.63245819  0.70115295  1.0
  O  O11152  1  0.95954669  0.79912485  0.70115295  1.0
  O  O11153  1  0.95954669  0.96579152  0.70115295  1.0
  O  O11154  1  0.08433514  0.04079111  0.68078976  1.0
  O  O11155  1  0.08433514  0.20745777  0.68078976  1.0
  O  O11156  1  0.08433514  0.37412444  0.68078976  1.0
  O  O11157  1  0.08433514  0.54079111  0.68078976  1.0
  O  O11158  1  0.08433514  0.70745777  0.68078976  1.0
  O  O11159  1  0.08433514  0.87412444  0.68078976  1.0
  O  O11160  1  0.17524423  0.04079111  0.68078976  1.0
  O  O11161  1  0.17524423  0.20745777  0.68078976  1.0
  O  O11162  1  0.17524423  0.37412444  0.68078976  1.0
  O  O11163  1  0.17524423  0.54079111  0.68078976  1.0
  O  O11164  1  0.17524423  0.70745777  0.68078976  1.0
  O  O11165  1  0.17524423  0.87412444  0.68078976  1.0
  O  O11166  1  0.26615332  0.04079111  0.68078976  1.0
  O  O11167  1  0.26615332  0.20745777  0.68078976  1.0
  O  O11168  1  0.26615332  0.37412444  0.68078976  1.0
  O  O11169  1  0.26615332  0.54079111  0.68078976  1.0
  O  O11170  1  0.26615332  0.70745777  0.68078976  1.0
  O  O11171  1  0.26615332  0.87412444  0.68078976  1.0
  O  O11172  1  0.35706241  0.04079111  0.68078976  1.0
  O  O11173  1  0.35706241  0.20745777  0.68078976  1.0
  O  O11174  1  0.35706241  0.37412444  0.68078976  1.0
  O  O11175  1  0.35706241  0.54079111  0.68078976  1.0
  O  O11176  1  0.35706241  0.70745777  0.68078976  1.0
  O  O11177  1  0.35706241  0.87412444  0.68078976  1.0
  O  O11178  1  0.44797150  0.04079111  0.68078976  1.0
  O  O11179  1  0.44797150  0.20745777  0.68078976  1.0
  O  O11180  1  0.44797150  0.37412444  0.68078976  1.0
  O  O11181  1  0.44797150  0.54079111  0.68078976  1.0
  O  O11182  1  0.44797150  0.70745777  0.68078976  1.0
  O  O11183  1  0.44797150  0.87412444  0.68078976  1.0
  O  O11184  1  0.53888059  0.04079111  0.68078976  1.0
  O  O11185  1  0.53888059  0.20745777  0.68078976  1.0
  O  O11186  1  0.53888059  0.37412444  0.68078976  1.0
  O  O11187  1  0.53888059  0.54079111  0.68078976  1.0
  O  O11188  1  0.53888059  0.70745777  0.68078976  1.0
  O  O11189  1  0.53888059  0.87412444  0.68078976  1.0
  O  O11190  1  0.62978969  0.04079111  0.68078976  1.0
  O  O11191  1  0.62978969  0.20745777  0.68078976  1.0
  O  O11192  1  0.62978969  0.37412444  0.68078976  1.0
  O  O11193  1  0.62978969  0.54079111  0.68078976  1.0
  O  O11194  1  0.62978969  0.70745777  0.68078976  1.0
  O  O11195  1  0.62978969  0.87412444  0.68078976  1.0
  O  O11196  1  0.72069878  0.04079111  0.68078976  1.0
  O  O11197  1  0.72069878  0.20745777  0.68078976  1.0
  O  O11198  1  0.72069878  0.37412444  0.68078976  1.0
  O  O11199  1  0.72069878  0.54079111  0.68078976  1.0
  O  O11200  1  0.72069878  0.70745777  0.68078976  1.0
  O  O11201  1  0.72069878  0.87412444  0.68078976  1.0
  O  O11202  1  0.81160787  0.04079111  0.68078976  1.0
  O  O11203  1  0.81160787  0.20745777  0.68078976  1.0
  O  O11204  1  0.81160787  0.37412444  0.68078976  1.0
  O  O11205  1  0.81160787  0.54079111  0.68078976  1.0
  O  O11206  1  0.81160787  0.70745777  0.68078976  1.0
  O  O11207  1  0.81160787  0.87412444  0.68078976  1.0
  O  O11208  1  0.90251696  0.04079111  0.68078976  1.0
  O  O11209  1  0.90251696  0.20745777  0.68078976  1.0
  O  O11210  1  0.90251696  0.37412444  0.68078976  1.0
  O  O11211  1  0.90251696  0.54079111  0.68078976  1.0
  O  O11212  1  0.90251696  0.70745777  0.68078976  1.0
  O  O11213  1  0.90251696  0.87412444  0.68078976  1.0
  O  O11214  1  0.99342605  0.04079111  0.68078976  1.0
  O  O11215  1  0.99342605  0.20745777  0.68078976  1.0
  O  O11216  1  0.99342605  0.37412444  0.68078976  1.0
  O  O11217  1  0.99342605  0.54079111  0.68078976  1.0
  O  O11218  1  0.99342605  0.70745777  0.68078976  1.0
  O  O11219  1  0.99342605  0.87412444  0.68078976  1.0
  O  O11220  1  0.02491776  0.11514915  0.65999569  1.0
  O  O11221  1  0.02491776  0.28181582  0.65999569  1.0
  O  O11222  1  0.02491776  0.44848248  0.65999569  1.0
  O  O11223  1  0.02491776  0.61514915  0.65999569  1.0
  O  O11224  1  0.02491776  0.78181582  0.65999569  1.0
  O  O11225  1  0.02491776  0.94848248  0.65999569  1.0
  O  O11226  1  0.11582685  0.11514915  0.65999569  1.0
  O  O11227  1  0.11582685  0.28181582  0.65999569  1.0
  O  O11228  1  0.11582685  0.44848248  0.65999569  1.0
  O  O11229  1  0.11582685  0.61514915  0.65999569  1.0
  O  O11230  1  0.11582685  0.78181582  0.65999569  1.0
  O  O11231  1  0.11582685  0.94848248  0.65999569  1.0
  O  O11232  1  0.20673594  0.11514915  0.65999569  1.0
  O  O11233  1  0.20673594  0.28181582  0.65999569  1.0
  O  O11234  1  0.20673594  0.44848248  0.65999569  1.0
  O  O11235  1  0.20673594  0.61514915  0.65999569  1.0
  O  O11236  1  0.20673594  0.78181582  0.65999569  1.0
  O  O11237  1  0.20673594  0.94848248  0.65999569  1.0
  O  O11238  1  0.29764504  0.11514915  0.65999569  1.0
  O  O11239  1  0.29764504  0.28181582  0.65999569  1.0
  O  O11240  1  0.29764504  0.44848248  0.65999569  1.0
  O  O11241  1  0.29764504  0.61514915  0.65999569  1.0
  O  O11242  1  0.29764504  0.78181582  0.65999569  1.0
  O  O11243  1  0.29764504  0.94848248  0.65999569  1.0
  O  O11244  1  0.38855413  0.11514915  0.65999569  1.0
  O  O11245  1  0.38855413  0.28181582  0.65999569  1.0
  O  O11246  1  0.38855413  0.44848248  0.65999569  1.0
  O  O11247  1  0.38855413  0.61514915  0.65999569  1.0
  O  O11248  1  0.38855413  0.78181582  0.65999569  1.0
  O  O11249  1  0.38855413  0.94848248  0.65999569  1.0
  O  O11250  1  0.47946322  0.11514915  0.65999569  1.0
  O  O11251  1  0.47946322  0.28181582  0.65999569  1.0
  O  O11252  1  0.47946322  0.44848248  0.65999569  1.0
  O  O11253  1  0.47946322  0.61514915  0.65999569  1.0
  O  O11254  1  0.47946322  0.78181582  0.65999569  1.0
  O  O11255  1  0.47946322  0.94848248  0.65999569  1.0
  O  O11256  1  0.57037231  0.11514915  0.65999569  1.0
  O  O11257  1  0.57037231  0.28181582  0.65999569  1.0
  O  O11258  1  0.57037231  0.44848248  0.65999569  1.0
  O  O11259  1  0.57037231  0.61514915  0.65999569  1.0
  O  O11260  1  0.57037231  0.78181582  0.65999569  1.0
  O  O11261  1  0.57037231  0.94848248  0.65999569  1.0
  O  O11262  1  0.66128140  0.11514915  0.65999569  1.0
  O  O11263  1  0.66128140  0.28181582  0.65999569  1.0
  O  O11264  1  0.66128140  0.44848248  0.65999569  1.0
  O  O11265  1  0.66128140  0.61514915  0.65999569  1.0
  O  O11266  1  0.66128140  0.78181582  0.65999569  1.0
  O  O11267  1  0.66128140  0.94848248  0.65999569  1.0
  O  O11268  1  0.75219049  0.11514915  0.65999569  1.0
  O  O11269  1  0.75219049  0.28181582  0.65999569  1.0
  O  O11270  1  0.75219049  0.44848248  0.65999569  1.0
  O  O11271  1  0.75219049  0.61514915  0.65999569  1.0
  O  O11272  1  0.75219049  0.78181582  0.65999569  1.0
  O  O11273  1  0.75219049  0.94848248  0.65999569  1.0
  O  O11274  1  0.84309958  0.11514915  0.65999569  1.0
  O  O11275  1  0.84309958  0.28181582  0.65999569  1.0
  O  O11276  1  0.84309958  0.44848248  0.65999569  1.0
  O  O11277  1  0.84309958  0.61514915  0.65999569  1.0
  O  O11278  1  0.84309958  0.78181582  0.65999569  1.0
  O  O11279  1  0.84309958  0.94848248  0.65999569  1.0
  O  O11280  1  0.93400867  0.11514915  0.65999569  1.0
  O  O11281  1  0.93400867  0.28181582  0.65999569  1.0
  O  O11282  1  0.93400867  0.44848248  0.65999569  1.0
  O  O11283  1  0.93400867  0.61514915  0.65999569  1.0
  O  O11284  1  0.93400867  0.78181582  0.65999569  1.0
  O  O11285  1  0.93400867  0.94848248  0.65999569  1.0
  O  O11286  1  0.09003581  0.08679005  0.69376496  1.0
  O  O11287  1  0.09003581  0.25345671  0.69376496  1.0
  O  O11288  1  0.09003581  0.42012338  0.69376496  1.0
  O  O11289  1  0.09003581  0.58679005  0.69376496  1.0
  O  O11290  1  0.09003581  0.75345671  0.69376496  1.0
  O  O11291  1  0.09003581  0.92012338  0.69376496  1.0
  O  O11292  1  0.18094490  0.08679005  0.69376496  1.0
  O  O11293  1  0.18094490  0.25345671  0.69376496  1.0
  O  O11294  1  0.18094490  0.42012338  0.69376496  1.0
  O  O11295  1  0.18094490  0.58679005  0.69376496  1.0
  O  O11296  1  0.18094490  0.75345671  0.69376496  1.0
  O  O11297  1  0.18094490  0.92012338  0.69376496  1.0
  O  O11298  1  0.27185399  0.08679005  0.69376496  1.0
  O  O11299  1  0.27185399  0.25345671  0.69376496  1.0
  O  O11300  1  0.27185399  0.42012338  0.69376496  1.0
  O  O11301  1  0.27185399  0.58679005  0.69376496  1.0
  O  O11302  1  0.27185399  0.75345671  0.69376496  1.0
  O  O11303  1  0.27185399  0.92012338  0.69376496  1.0
  O  O11304  1  0.36276308  0.08679005  0.69376496  1.0
  O  O11305  1  0.36276308  0.25345671  0.69376496  1.0
  O  O11306  1  0.36276308  0.42012338  0.69376496  1.0
  O  O11307  1  0.36276308  0.58679005  0.69376496  1.0
  O  O11308  1  0.36276308  0.75345671  0.69376496  1.0
  O  O11309  1  0.36276308  0.92012338  0.69376496  1.0
  O  O11310  1  0.45367217  0.08679005  0.69376496  1.0
  O  O11311  1  0.45367217  0.25345671  0.69376496  1.0
  O  O11312  1  0.45367217  0.42012338  0.69376496  1.0
  O  O11313  1  0.45367217  0.58679005  0.69376496  1.0
  O  O11314  1  0.45367217  0.75345671  0.69376496  1.0
  O  O11315  1  0.45367217  0.92012338  0.69376496  1.0
  O  O11316  1  0.54458126  0.08679005  0.69376496  1.0
  O  O11317  1  0.54458126  0.25345671  0.69376496  1.0
  O  O11318  1  0.54458126  0.42012338  0.69376496  1.0
  O  O11319  1  0.54458126  0.58679005  0.69376496  1.0
  O  O11320  1  0.54458126  0.75345671  0.69376496  1.0
  O  O11321  1  0.54458126  0.92012338  0.69376496  1.0
  O  O11322  1  0.63549035  0.08679005  0.69376496  1.0
  O  O11323  1  0.63549035  0.25345671  0.69376496  1.0
  O  O11324  1  0.63549035  0.42012338  0.69376496  1.0
  O  O11325  1  0.63549035  0.58679005  0.69376496  1.0
  O  O11326  1  0.63549035  0.75345671  0.69376496  1.0
  O  O11327  1  0.63549035  0.92012338  0.69376496  1.0
  O  O11328  1  0.72639944  0.08679005  0.69376496  1.0
  O  O11329  1  0.72639944  0.25345671  0.69376496  1.0
  O  O11330  1  0.72639944  0.42012338  0.69376496  1.0
  O  O11331  1  0.72639944  0.58679005  0.69376496  1.0
  O  O11332  1  0.72639944  0.75345671  0.69376496  1.0
  O  O11333  1  0.72639944  0.92012338  0.69376496  1.0
  O  O11334  1  0.81730853  0.08679005  0.69376496  1.0
  O  O11335  1  0.81730853  0.25345671  0.69376496  1.0
  O  O11336  1  0.81730853  0.42012338  0.69376496  1.0
  O  O11337  1  0.81730853  0.58679005  0.69376496  1.0
  O  O11338  1  0.81730853  0.75345671  0.69376496  1.0
  O  O11339  1  0.81730853  0.92012338  0.69376496  1.0
  O  O11340  1  0.90821762  0.08679005  0.69376496  1.0
  O  O11341  1  0.90821763  0.25345671  0.69376496  1.0
  O  O11342  1  0.90821763  0.42012338  0.69376496  1.0
  O  O11343  1  0.90821762  0.58679005  0.69376496  1.0
  O  O11344  1  0.90821763  0.75345671  0.69376496  1.0
  O  O11345  1  0.90821763  0.92012338  0.69376496  1.0
  O  O11346  1  0.99912672  0.08679005  0.69376496  1.0
  O  O11347  1  0.99912672  0.25345671  0.69376496  1.0
  O  O11348  1  0.99912672  0.42012338  0.69376496  1.0
  O  O11349  1  0.99912672  0.58679005  0.69376496  1.0
  O  O11350  1  0.99912672  0.75345671  0.69376496  1.0
  O  O11351  1  0.99912672  0.92012338  0.69376496  1.0
  O  O11352  1  0.07789462  0.16275131  0.66944589  1.0
  O  O11353  1  0.07789462  0.32941798  0.66944589  1.0
  O  O11354  1  0.07789462  0.49608465  0.66944589  1.0
  O  O11355  1  0.07789462  0.66275131  0.66944589  1.0
  O  O11356  1  0.07789462  0.82941798  0.66944589  1.0
  O  O11357  1  0.07789462  0.99608465  0.66944589  1.0
  O  O11358  1  0.16880371  0.16275131  0.66944589  1.0
  O  O11359  1  0.16880371  0.32941798  0.66944589  1.0
  O  O11360  1  0.16880371  0.49608465  0.66944589  1.0
  O  O11361  1  0.16880371  0.66275131  0.66944589  1.0
  O  O11362  1  0.16880371  0.82941798  0.66944589  1.0
  O  O11363  1  0.16880371  0.99608465  0.66944589  1.0
  O  O11364  1  0.25971280  0.16275131  0.66944589  1.0
  O  O11365  1  0.25971280  0.32941798  0.66944589  1.0
  O  O11366  1  0.25971280  0.49608465  0.66944589  1.0
  O  O11367  1  0.25971280  0.66275131  0.66944589  1.0
  O  O11368  1  0.25971280  0.82941798  0.66944589  1.0
  O  O11369  1  0.25971280  0.99608465  0.66944589  1.0
  O  O11370  1  0.35062189  0.16275131  0.66944589  1.0
  O  O11371  1  0.35062189  0.32941798  0.66944589  1.0
  O  O11372  1  0.35062189  0.49608465  0.66944589  1.0
  O  O11373  1  0.35062189  0.66275131  0.66944589  1.0
  O  O11374  1  0.35062189  0.82941798  0.66944589  1.0
  O  O11375  1  0.35062189  0.99608465  0.66944589  1.0
  O  O11376  1  0.44153099  0.16275131  0.66944589  1.0
  O  O11377  1  0.44153099  0.32941798  0.66944589  1.0
  O  O11378  1  0.44153099  0.49608465  0.66944589  1.0
  O  O11379  1  0.44153099  0.66275131  0.66944589  1.0
  O  O11380  1  0.44153098  0.82941798  0.66944589  1.0
  O  O11381  1  0.44153098  0.99608465  0.66944589  1.0
  O  O11382  1  0.53244008  0.16275131  0.66944589  1.0
  O  O11383  1  0.53244008  0.32941798  0.66944589  1.0
  O  O11384  1  0.53244008  0.49608465  0.66944589  1.0
  O  O11385  1  0.53244008  0.66275131  0.66944589  1.0
  O  O11386  1  0.53244008  0.82941798  0.66944589  1.0
  O  O11387  1  0.53244008  0.99608465  0.66944589  1.0
  O  O11388  1  0.62334917  0.16275131  0.66944589  1.0
  O  O11389  1  0.62334917  0.32941798  0.66944589  1.0
  O  O11390  1  0.62334917  0.49608465  0.66944589  1.0
  O  O11391  1  0.62334917  0.66275131  0.66944589  1.0
  O  O11392  1  0.62334917  0.82941798  0.66944589  1.0
  O  O11393  1  0.62334917  0.99608465  0.66944589  1.0
  O  O11394  1  0.71425826  0.16275131  0.66944589  1.0
  O  O11395  1  0.71425826  0.32941798  0.66944589  1.0
  O  O11396  1  0.71425826  0.49608465  0.66944589  1.0
  O  O11397  1  0.71425826  0.66275131  0.66944589  1.0
  O  O11398  1  0.71425826  0.82941798  0.66944589  1.0
  O  O11399  1  0.71425826  0.99608465  0.66944589  1.0
  O  O11400  1  0.80516735  0.16275131  0.66944589  1.0
  O  O11401  1  0.80516735  0.32941798  0.66944589  1.0
  O  O11402  1  0.80516735  0.49608465  0.66944589  1.0
  O  O11403  1  0.80516735  0.66275131  0.66944589  1.0
  O  O11404  1  0.80516735  0.82941798  0.66944589  1.0
  O  O11405  1  0.80516735  0.99608465  0.66944589  1.0
  O  O11406  1  0.89607644  0.16275131  0.66944589  1.0
  O  O11407  1  0.89607644  0.32941798  0.66944589  1.0
  O  O11408  1  0.89607644  0.49608465  0.66944589  1.0
  O  O11409  1  0.89607644  0.66275131  0.66944589  1.0
  O  O11410  1  0.89607644  0.82941798  0.66944589  1.0
  O  O11411  1  0.89607644  0.99608465  0.66944589  1.0
  O  O11412  1  0.98698553  0.16275131  0.66944589  1.0
  O  O11413  1  0.98698553  0.32941798  0.66944589  1.0
  O  O11414  1  0.98698553  0.49608465  0.66944589  1.0
  O  O11415  1  0.98698553  0.66275131  0.66944589  1.0
  O  O11416  1  0.98698553  0.82941798  0.66944589  1.0
  O  O11417  1  0.98698553  0.99608465  0.66944589  1.0
  O  O11418  1  0.03329271  0.16257342  0.66789131  1.0
  O  O11419  1  0.03329271  0.32924008  0.66789131  1.0
  O  O11420  1  0.03329271  0.49590675  0.66789131  1.0
  O  O11421  1  0.03329271  0.66257342  0.66789131  1.0
  O  O11422  1  0.03329271  0.82924008  0.66789131  1.0
  O  O11423  1  0.03329271  0.99590675  0.66789131  1.0
  O  O11424  1  0.12420180  0.16257342  0.66789131  1.0
  O  O11425  1  0.12420180  0.32924008  0.66789131  1.0
  O  O11426  1  0.12420180  0.49590675  0.66789131  1.0
  O  O11427  1  0.12420180  0.66257342  0.66789131  1.0
  O  O11428  1  0.12420180  0.82924008  0.66789131  1.0
  O  O11429  1  0.12420180  0.99590675  0.66789131  1.0
  O  O11430  1  0.21511089  0.16257342  0.66789131  1.0
  O  O11431  1  0.21511089  0.32924008  0.66789131  1.0
  O  O11432  1  0.21511089  0.49590675  0.66789131  1.0
  O  O11433  1  0.21511089  0.66257342  0.66789131  1.0
  O  O11434  1  0.21511089  0.82924008  0.66789131  1.0
  O  O11435  1  0.21511089  0.99590675  0.66789131  1.0
  O  O11436  1  0.30601998  0.16257342  0.66789131  1.0
  O  O11437  1  0.30601998  0.32924008  0.66789131  1.0
  O  O11438  1  0.30601998  0.49590675  0.66789131  1.0
  O  O11439  1  0.30601998  0.66257342  0.66789131  1.0
  O  O11440  1  0.30601998  0.82924008  0.66789131  1.0
  O  O11441  1  0.30601998  0.99590675  0.66789131  1.0
  O  O11442  1  0.39692907  0.16257342  0.66789131  1.0
  O  O11443  1  0.39692907  0.32924008  0.66789131  1.0
  O  O11444  1  0.39692907  0.49590675  0.66789131  1.0
  O  O11445  1  0.39692907  0.66257342  0.66789131  1.0
  O  O11446  1  0.39692907  0.82924008  0.66789131  1.0
  O  O11447  1  0.39692907  0.99590675  0.66789131  1.0
  O  O11448  1  0.48783817  0.16257342  0.66789131  1.0
  O  O11449  1  0.48783817  0.32924008  0.66789131  1.0
  O  O11450  1  0.48783817  0.49590675  0.66789131  1.0
  O  O11451  1  0.48783817  0.66257342  0.66789131  1.0
  O  O11452  1  0.48783816  0.82924008  0.66789131  1.0
  O  O11453  1  0.48783817  0.99590675  0.66789131  1.0
  O  O11454  1  0.57874726  0.16257342  0.66789131  1.0
  O  O11455  1  0.57874726  0.32924008  0.66789131  1.0
  O  O11456  1  0.57874726  0.49590675  0.66789131  1.0
  O  O11457  1  0.57874726  0.66257342  0.66789131  1.0
  O  O11458  1  0.57874726  0.82924008  0.66789131  1.0
  O  O11459  1  0.57874726  0.99590675  0.66789131  1.0
  O  O11460  1  0.66965635  0.16257342  0.66789131  1.0
  O  O11461  1  0.66965635  0.32924008  0.66789131  1.0
  O  O11462  1  0.66965635  0.49590675  0.66789131  1.0
  O  O11463  1  0.66965635  0.66257342  0.66789131  1.0
  O  O11464  1  0.66965635  0.82924008  0.66789131  1.0
  O  O11465  1  0.66965635  0.99590675  0.66789131  1.0
  O  O11466  1  0.76056544  0.16257342  0.66789131  1.0
  O  O11467  1  0.76056544  0.32924008  0.66789131  1.0
  O  O11468  1  0.76056544  0.49590675  0.66789131  1.0
  O  O11469  1  0.76056544  0.66257342  0.66789131  1.0
  O  O11470  1  0.76056544  0.82924008  0.66789131  1.0
  O  O11471  1  0.76056544  0.99590675  0.66789131  1.0
  O  O11472  1  0.85147453  0.16257342  0.66789131  1.0
  O  O11473  1  0.85147453  0.32924008  0.66789131  1.0
  O  O11474  1  0.85147453  0.49590675  0.66789131  1.0
  O  O11475  1  0.85147453  0.66257342  0.66789131  1.0
  O  O11476  1  0.85147453  0.82924008  0.66789131  1.0
  O  O11477  1  0.85147453  0.99590675  0.66789131  1.0
  O  O11478  1  0.94238362  0.16257342  0.66789131  1.0
  O  O11479  1  0.94238362  0.32924008  0.66789131  1.0
  O  O11480  1  0.94238362  0.49590675  0.66789131  1.0
  O  O11481  1  0.94238362  0.66257342  0.66789131  1.0
  O  O11482  1  0.94238362  0.82924008  0.66789131  1.0
  O  O11483  1  0.94238362  0.99590675  0.66789131  1.0
  O  O11484  1  0.07286760  0.11688983  0.66059078  1.0
  O  O11485  1  0.07286760  0.28355649  0.66059078  1.0
  O  O11486  1  0.07286760  0.45022316  0.66059078  1.0
  O  O11487  1  0.07286760  0.61688983  0.66059078  1.0
  O  O11488  1  0.07286760  0.78355649  0.66059078  1.0
  O  O11489  1  0.07286760  0.95022316  0.66059078  1.0
  O  O11490  1  0.16377669  0.11688983  0.66059078  1.0
  O  O11491  1  0.16377669  0.28355649  0.66059078  1.0
  O  O11492  1  0.16377669  0.45022316  0.66059078  1.0
  O  O11493  1  0.16377669  0.61688983  0.66059078  1.0
  O  O11494  1  0.16377669  0.78355649  0.66059078  1.0
  O  O11495  1  0.16377669  0.95022316  0.66059078  1.0
  O  O11496  1  0.25468578  0.11688983  0.66059078  1.0
  O  O11497  1  0.25468578  0.28355649  0.66059078  1.0
  O  O11498  1  0.25468578  0.45022316  0.66059078  1.0
  O  O11499  1  0.25468578  0.61688983  0.66059078  1.0
  O  O11500  1  0.25468578  0.78355649  0.66059078  1.0
  O  O11501  1  0.25468578  0.95022316  0.66059078  1.0
  O  O11502  1  0.34559487  0.11688983  0.66059078  1.0
  O  O11503  1  0.34559487  0.28355649  0.66059078  1.0
  O  O11504  1  0.34559487  0.45022316  0.66059078  1.0
  O  O11505  1  0.34559487  0.61688983  0.66059078  1.0
  O  O11506  1  0.34559487  0.78355649  0.66059078  1.0
  O  O11507  1  0.34559487  0.95022316  0.66059078  1.0
  O  O11508  1  0.43650396  0.11688983  0.66059078  1.0
  O  O11509  1  0.43650396  0.28355649  0.66059078  1.0
  O  O11510  1  0.43650396  0.45022316  0.66059078  1.0
  O  O11511  1  0.43650396  0.61688983  0.66059078  1.0
  O  O11512  1  0.43650396  0.78355649  0.66059078  1.0
  O  O11513  1  0.43650396  0.95022316  0.66059078  1.0
  O  O11514  1  0.52741305  0.11688983  0.66059078  1.0
  O  O11515  1  0.52741305  0.28355649  0.66059078  1.0
  O  O11516  1  0.52741305  0.45022316  0.66059078  1.0
  O  O11517  1  0.52741305  0.61688983  0.66059078  1.0
  O  O11518  1  0.52741305  0.78355649  0.66059078  1.0
  O  O11519  1  0.52741305  0.95022316  0.66059078  1.0
  O  O11520  1  0.61832214  0.11688983  0.66059078  1.0
  O  O11521  1  0.61832214  0.28355649  0.66059078  1.0
  O  O11522  1  0.61832214  0.45022316  0.66059078  1.0
  O  O11523  1  0.61832214  0.61688983  0.66059078  1.0
  O  O11524  1  0.61832214  0.78355649  0.66059078  1.0
  O  O11525  1  0.61832214  0.95022316  0.66059078  1.0
  O  O11526  1  0.70923123  0.11688983  0.66059078  1.0
  O  O11527  1  0.70923123  0.28355649  0.66059078  1.0
  O  O11528  1  0.70923123  0.45022316  0.66059078  1.0
  O  O11529  1  0.70923123  0.61688983  0.66059078  1.0
  O  O11530  1  0.70923123  0.78355649  0.66059078  1.0
  O  O11531  1  0.70923123  0.95022316  0.66059078  1.0
  O  O11532  1  0.80014032  0.11688983  0.66059078  1.0
  O  O11533  1  0.80014032  0.28355649  0.66059078  1.0
  O  O11534  1  0.80014032  0.45022316  0.66059078  1.0
  O  O11535  1  0.80014032  0.61688983  0.66059078  1.0
  O  O11536  1  0.80014032  0.78355649  0.66059078  1.0
  O  O11537  1  0.80014032  0.95022316  0.66059078  1.0
  O  O11538  1  0.89104941  0.11688983  0.66059078  1.0
  O  O11539  1  0.89104941  0.28355649  0.66059078  1.0
  O  O11540  1  0.89104941  0.45022316  0.66059078  1.0
  O  O11541  1  0.89104941  0.61688983  0.66059078  1.0
  O  O11542  1  0.89104941  0.78355649  0.66059078  1.0
  O  O11543  1  0.89104941  0.95022316  0.66059078  1.0
  O  O11544  1  0.98195851  0.11688983  0.66059078  1.0
  O  O11545  1  0.98195851  0.28355649  0.66059078  1.0
  O  O11546  1  0.98195851  0.45022316  0.66059078  1.0
  O  O11547  1  0.98195851  0.61688983  0.66059078  1.0
  O  O11548  1  0.98195851  0.78355649  0.66059078  1.0
  O  O11549  1  0.98195851  0.95022316  0.66059078  1.0
  O  O11550  1  0.00746290  0.13412274  0.70170802  1.0
  O  O11551  1  0.00746290  0.30078941  0.70170802  1.0
  O  O11552  1  0.00746290  0.46745607  0.70170802  1.0
  O  O11553  1  0.00746290  0.63412274  0.70170802  1.0
  O  O11554  1  0.00746290  0.80078941  0.70170802  1.0
  O  O11555  1  0.00746290  0.96745607  0.70170802  1.0
  O  O11556  1  0.09837200  0.13412274  0.70170802  1.0
  O  O11557  1  0.09837200  0.30078941  0.70170802  1.0
  O  O11558  1  0.09837200  0.46745607  0.70170802  1.0
  O  O11559  1  0.09837200  0.63412274  0.70170802  1.0
  O  O11560  1  0.09837200  0.80078941  0.70170802  1.0
  O  O11561  1  0.09837200  0.96745607  0.70170802  1.0
  O  O11562  1  0.18928109  0.13412274  0.70170802  1.0
  O  O11563  1  0.18928109  0.30078941  0.70170802  1.0
  O  O11564  1  0.18928109  0.46745607  0.70170802  1.0
  O  O11565  1  0.18928109  0.63412274  0.70170802  1.0
  O  O11566  1  0.18928109  0.80078941  0.70170802  1.0
  O  O11567  1  0.18928109  0.96745607  0.70170802  1.0
  O  O11568  1  0.28019018  0.13412274  0.70170802  1.0
  O  O11569  1  0.28019018  0.30078941  0.70170802  1.0
  O  O11570  1  0.28019018  0.46745607  0.70170802  1.0
  O  O11571  1  0.28019018  0.63412274  0.70170802  1.0
  O  O11572  1  0.28019018  0.80078941  0.70170802  1.0
  O  O11573  1  0.28019018  0.96745607  0.70170802  1.0
  O  O11574  1  0.37109927  0.13412274  0.70170802  1.0
  O  O11575  1  0.37109927  0.30078941  0.70170802  1.0
  O  O11576  1  0.37109927  0.46745607  0.70170802  1.0
  O  O11577  1  0.37109927  0.63412274  0.70170802  1.0
  O  O11578  1  0.37109927  0.80078941  0.70170802  1.0
  O  O11579  1  0.37109927  0.96745607  0.70170802  1.0
  O  O11580  1  0.46200836  0.13412274  0.70170802  1.0
  O  O11581  1  0.46200836  0.30078941  0.70170802  1.0
  O  O11582  1  0.46200836  0.46745607  0.70170802  1.0
  O  O11583  1  0.46200836  0.63412274  0.70170802  1.0
  O  O11584  1  0.46200836  0.80078941  0.70170802  1.0
  O  O11585  1  0.46200836  0.96745607  0.70170802  1.0
  O  O11586  1  0.55291745  0.13412274  0.70170802  1.0
  O  O11587  1  0.55291745  0.30078941  0.70170802  1.0
  O  O11588  1  0.55291745  0.46745607  0.70170802  1.0
  O  O11589  1  0.55291745  0.63412274  0.70170802  1.0
  O  O11590  1  0.55291745  0.80078941  0.70170802  1.0
  O  O11591  1  0.55291745  0.96745607  0.70170802  1.0
  O  O11592  1  0.64382654  0.13412274  0.70170802  1.0
  O  O11593  1  0.64382654  0.30078941  0.70170802  1.0
  O  O11594  1  0.64382654  0.46745607  0.70170802  1.0
  O  O11595  1  0.64382654  0.63412274  0.70170802  1.0
  O  O11596  1  0.64382654  0.80078941  0.70170802  1.0
  O  O11597  1  0.64382654  0.96745607  0.70170802  1.0
  O  O11598  1  0.73473563  0.13412274  0.70170802  1.0
  O  O11599  1  0.73473563  0.30078941  0.70170802  1.0
  O  O11600  1  0.73473563  0.46745607  0.70170802  1.0
  O  O11601  1  0.73473563  0.63412274  0.70170802  1.0
  O  O11602  1  0.73473563  0.80078941  0.70170802  1.0
  O  O11603  1  0.73473563  0.96745607  0.70170802  1.0
  O  O11604  1  0.82564472  0.13412274  0.70170802  1.0
  O  O11605  1  0.82564472  0.30078941  0.70170802  1.0
  O  O11606  1  0.82564472  0.46745607  0.70170802  1.0
  O  O11607  1  0.82564472  0.63412274  0.70170802  1.0
  O  O11608  1  0.82564472  0.80078941  0.70170802  1.0
  O  O11609  1  0.82564472  0.96745607  0.70170802  1.0
  O  O11610  1  0.91655381  0.13412274  0.70170802  1.0
  O  O11611  1  0.91655381  0.30078941  0.70170802  1.0
  O  O11612  1  0.91655381  0.46745607  0.70170802  1.0
  O  O11613  1  0.91655381  0.63412274  0.70170802  1.0
  O  O11614  1  0.91655381  0.80078941  0.70170802  1.0
  O  O11615  1  0.91655381  0.96745607  0.70170802  1.0
