# generated using pymatgen
data_Ti39O49
_symmetry_space_group_name_H-M   'P 1'
_cell_length_a   61.34317272
_cell_length_b   63.78965197
_cell_length_c   65.33097425
_cell_angle_alpha   93.92424634
_cell_angle_beta   92.17127106
_cell_angle_gamma   85.06217195
_symmetry_Int_Tables_number   1
_chemical_formula_structural   Ti39O49
_chemical_formula_sum   'Ti5616 O7056'
_cell_volume   253966.37887248
_cell_formula_units_Z   144
loop_
 _symmetry_equiv_pos_site_id
 _symmetry_equiv_pos_as_xyz
  1  'x, y, z'
loop_
 _atom_site_type_symbol
 _atom_site_label
 _atom_site_symmetry_multiplicity
 _atom_site_fract_x
 _atom_site_fract_y
 _atom_site_fract_z
 _atom_site_occupancy
  Ti  Ti0  1  0.06114166  0.11080906  0.26862260  1.0
  Ti  Ti1  1  0.06114166  0.27747572  0.26862260  1.0
  Ti  Ti2  1  0.06114166  0.44414239  0.26862260  1.0
  Ti  Ti3  1  0.06114166  0.61080906  0.26862260  1.0
  Ti  Ti4  1  0.06114166  0.77747572  0.26862260  1.0
  Ti  Ti5  1  0.06114166  0.94414239  0.26862260  1.0
  Ti  Ti6  1  0.14447499  0.11080906  0.26862260  1.0
  Ti  Ti7  1  0.14447499  0.27747572  0.26862260  1.0
  Ti  Ti8  1  0.14447499  0.44414239  0.26862260  1.0
  Ti  Ti9  1  0.14447499  0.61080906  0.26862260  1.0
  Ti  Ti10  1  0.14447499  0.77747572  0.26862260  1.0
  Ti  Ti11  1  0.14447499  0.94414239  0.26862260  1.0
  Ti  Ti12  1  0.22780832  0.11080906  0.26862260  1.0
  Ti  Ti13  1  0.22780832  0.27747572  0.26862260  1.0
  Ti  Ti14  1  0.22780832  0.44414239  0.26862260  1.0
  Ti  Ti15  1  0.22780832  0.61080906  0.26862260  1.0
  Ti  Ti16  1  0.22780832  0.77747572  0.26862260  1.0
  Ti  Ti17  1  0.22780832  0.94414239  0.26862260  1.0
  Ti  Ti18  1  0.31114166  0.11080906  0.26862260  1.0
  Ti  Ti19  1  0.31114166  0.27747572  0.26862260  1.0
  Ti  Ti20  1  0.31114166  0.44414239  0.26862260  1.0
  Ti  Ti21  1  0.31114166  0.61080906  0.26862260  1.0
  Ti  Ti22  1  0.31114166  0.77747572  0.26862260  1.0
  Ti  Ti23  1  0.31114166  0.94414239  0.26862260  1.0
  Ti  Ti24  1  0.39447499  0.11080906  0.26862260  1.0
  Ti  Ti25  1  0.39447499  0.27747572  0.26862260  1.0
  Ti  Ti26  1  0.39447499  0.44414239  0.26862260  1.0
  Ti  Ti27  1  0.39447499  0.61080906  0.26862260  1.0
  Ti  Ti28  1  0.39447499  0.77747572  0.26862260  1.0
  Ti  Ti29  1  0.39447499  0.94414239  0.26862260  1.0
  Ti  Ti30  1  0.47780832  0.11080906  0.26862260  1.0
  Ti  Ti31  1  0.47780832  0.27747572  0.26862260  1.0
  Ti  Ti32  1  0.47780832  0.44414239  0.26862260  1.0
  Ti  Ti33  1  0.47780832  0.61080906  0.26862260  1.0
  Ti  Ti34  1  0.47780832  0.77747572  0.26862260  1.0
  Ti  Ti35  1  0.47780832  0.94414239  0.26862260  1.0
  Ti  Ti36  1  0.56114166  0.11080906  0.26862260  1.0
  Ti  Ti37  1  0.56114166  0.27747572  0.26862260  1.0
  Ti  Ti38  1  0.56114166  0.44414239  0.26862260  1.0
  Ti  Ti39  1  0.56114166  0.61080906  0.26862260  1.0
  Ti  Ti40  1  0.56114166  0.77747572  0.26862260  1.0
  Ti  Ti41  1  0.56114166  0.94414239  0.26862260  1.0
  Ti  Ti42  1  0.64447499  0.11080906  0.26862260  1.0
  Ti  Ti43  1  0.64447499  0.27747572  0.26862260  1.0
  Ti  Ti44  1  0.64447499  0.44414239  0.26862260  1.0
  Ti  Ti45  1  0.64447499  0.61080906  0.26862260  1.0
  Ti  Ti46  1  0.64447499  0.77747572  0.26862260  1.0
  Ti  Ti47  1  0.64447499  0.94414239  0.26862260  1.0
  Ti  Ti48  1  0.72780832  0.11080906  0.26862260  1.0
  Ti  Ti49  1  0.72780832  0.27747572  0.26862260  1.0
  Ti  Ti50  1  0.72780832  0.44414239  0.26862260  1.0
  Ti  Ti51  1  0.72780832  0.61080906  0.26862260  1.0
  Ti  Ti52  1  0.72780832  0.77747572  0.26862260  1.0
  Ti  Ti53  1  0.72780832  0.94414239  0.26862260  1.0
  Ti  Ti54  1  0.81114166  0.11080906  0.26862260  1.0
  Ti  Ti55  1  0.81114166  0.27747572  0.26862260  1.0
  Ti  Ti56  1  0.81114166  0.44414239  0.26862260  1.0
  Ti  Ti57  1  0.81114166  0.61080906  0.26862260  1.0
  Ti  Ti58  1  0.81114166  0.77747572  0.26862260  1.0
  Ti  Ti59  1  0.81114166  0.94414239  0.26862260  1.0
  Ti  Ti60  1  0.89447499  0.11080906  0.26862260  1.0
  Ti  Ti61  1  0.89447499  0.27747572  0.26862260  1.0
  Ti  Ti62  1  0.89447499  0.44414239  0.26862260  1.0
  Ti  Ti63  1  0.89447499  0.61080906  0.26862260  1.0
  Ti  Ti64  1  0.89447499  0.77747572  0.26862260  1.0
  Ti  Ti65  1  0.89447499  0.94414239  0.26862260  1.0
  Ti  Ti66  1  0.97780832  0.11080906  0.26862260  1.0
  Ti  Ti67  1  0.97780832  0.27747572  0.26862260  1.0
  Ti  Ti68  1  0.97780832  0.44414239  0.26862260  1.0
  Ti  Ti69  1  0.97780832  0.61080906  0.26862260  1.0
  Ti  Ti70  1  0.97780832  0.77747572  0.26862260  1.0
  Ti  Ti71  1  0.97780832  0.94414239  0.26862260  1.0
  Ti  Ti72  1  0.03733213  0.09890430  0.34005117  1.0
  Ti  Ti73  1  0.03733213  0.26557096  0.34005117  1.0
  Ti  Ti74  1  0.03733213  0.43223763  0.34005117  1.0
  Ti  Ti75  1  0.03733213  0.59890430  0.34005117  1.0
  Ti  Ti76  1  0.03733213  0.76557096  0.34005117  1.0
  Ti  Ti77  1  0.03733213  0.93223763  0.34005117  1.0
  Ti  Ti78  1  0.12066547  0.09890430  0.34005117  1.0
  Ti  Ti79  1  0.12066547  0.26557096  0.34005117  1.0
  Ti  Ti80  1  0.12066547  0.43223763  0.34005117  1.0
  Ti  Ti81  1  0.12066547  0.59890430  0.34005117  1.0
  Ti  Ti82  1  0.12066547  0.76557096  0.34005117  1.0
  Ti  Ti83  1  0.12066547  0.93223763  0.34005117  1.0
  Ti  Ti84  1  0.20399880  0.09890430  0.34005117  1.0
  Ti  Ti85  1  0.20399880  0.26557096  0.34005117  1.0
  Ti  Ti86  1  0.20399880  0.43223763  0.34005117  1.0
  Ti  Ti87  1  0.20399880  0.59890430  0.34005117  1.0
  Ti  Ti88  1  0.20399880  0.76557096  0.34005117  1.0
  Ti  Ti89  1  0.20399880  0.93223763  0.34005117  1.0
  Ti  Ti90  1  0.28733213  0.09890430  0.34005117  1.0
  Ti  Ti91  1  0.28733213  0.26557096  0.34005117  1.0
  Ti  Ti92  1  0.28733213  0.43223763  0.34005117  1.0
  Ti  Ti93  1  0.28733213  0.59890430  0.34005117  1.0
  Ti  Ti94  1  0.28733213  0.76557096  0.34005117  1.0
  Ti  Ti95  1  0.28733213  0.93223763  0.34005117  1.0
  Ti  Ti96  1  0.37066547  0.09890430  0.34005117  1.0
  Ti  Ti97  1  0.37066547  0.26557096  0.34005117  1.0
  Ti  Ti98  1  0.37066547  0.43223763  0.34005117  1.0
  Ti  Ti99  1  0.37066547  0.59890430  0.34005117  1.0
  Ti  Ti100  1  0.37066547  0.76557096  0.34005117  1.0
  Ti  Ti101  1  0.37066547  0.93223763  0.34005117  1.0
  Ti  Ti102  1  0.45399880  0.09890430  0.34005117  1.0
  Ti  Ti103  1  0.45399880  0.26557096  0.34005117  1.0
  Ti  Ti104  1  0.45399880  0.43223763  0.34005117  1.0
  Ti  Ti105  1  0.45399880  0.59890430  0.34005117  1.0
  Ti  Ti106  1  0.45399880  0.76557096  0.34005117  1.0
  Ti  Ti107  1  0.45399880  0.93223763  0.34005117  1.0
  Ti  Ti108  1  0.53733213  0.09890430  0.34005117  1.0
  Ti  Ti109  1  0.53733213  0.26557096  0.34005117  1.0
  Ti  Ti110  1  0.53733213  0.43223763  0.34005117  1.0
  Ti  Ti111  1  0.53733213  0.59890430  0.34005117  1.0
  Ti  Ti112  1  0.53733213  0.76557096  0.34005117  1.0
  Ti  Ti113  1  0.53733213  0.93223763  0.34005117  1.0
  Ti  Ti114  1  0.62066547  0.09890430  0.34005117  1.0
  Ti  Ti115  1  0.62066547  0.26557096  0.34005117  1.0
  Ti  Ti116  1  0.62066547  0.43223763  0.34005117  1.0
  Ti  Ti117  1  0.62066547  0.59890430  0.34005117  1.0
  Ti  Ti118  1  0.62066547  0.76557096  0.34005117  1.0
  Ti  Ti119  1  0.62066547  0.93223763  0.34005117  1.0
  Ti  Ti120  1  0.70399880  0.09890430  0.34005117  1.0
  Ti  Ti121  1  0.70399880  0.26557096  0.34005117  1.0
  Ti  Ti122  1  0.70399880  0.43223763  0.34005117  1.0
  Ti  Ti123  1  0.70399880  0.59890430  0.34005117  1.0
  Ti  Ti124  1  0.70399880  0.76557096  0.34005117  1.0
  Ti  Ti125  1  0.70399880  0.93223763  0.34005117  1.0
  Ti  Ti126  1  0.78733213  0.09890430  0.34005117  1.0
  Ti  Ti127  1  0.78733213  0.26557096  0.34005117  1.0
  Ti  Ti128  1  0.78733213  0.43223763  0.34005117  1.0
  Ti  Ti129  1  0.78733213  0.59890430  0.34005117  1.0
  Ti  Ti130  1  0.78733213  0.76557096  0.34005117  1.0
  Ti  Ti131  1  0.78733213  0.93223763  0.34005117  1.0
  Ti  Ti132  1  0.87066547  0.09890430  0.34005117  1.0
  Ti  Ti133  1  0.87066547  0.26557096  0.34005117  1.0
  Ti  Ti134  1  0.87066547  0.43223763  0.34005117  1.0
  Ti  Ti135  1  0.87066547  0.59890430  0.34005117  1.0
  Ti  Ti136  1  0.87066547  0.76557096  0.34005117  1.0
  Ti  Ti137  1  0.87066547  0.93223763  0.34005117  1.0
  Ti  Ti138  1  0.95399880  0.09890430  0.34005117  1.0
  Ti  Ti139  1  0.95399880  0.26557096  0.34005117  1.0
  Ti  Ti140  1  0.95399880  0.43223763  0.34005117  1.0
  Ti  Ti141  1  0.95399880  0.59890430  0.34005117  1.0
  Ti  Ti142  1  0.95399880  0.76557096  0.34005117  1.0
  Ti  Ti143  1  0.95399880  0.93223763  0.34005117  1.0
  Ti  Ti144  1  0.06639130  0.01808992  0.24707754  1.0
  Ti  Ti145  1  0.06639130  0.18475659  0.24707754  1.0
  Ti  Ti146  1  0.06639130  0.35142325  0.24707754  1.0
  Ti  Ti147  1  0.06639130  0.51808992  0.24707754  1.0
  Ti  Ti148  1  0.06639130  0.68475659  0.24707754  1.0
  Ti  Ti149  1  0.06639130  0.85142325  0.24707754  1.0
  Ti  Ti150  1  0.14972463  0.01808992  0.24707754  1.0
  Ti  Ti151  1  0.14972463  0.18475659  0.24707754  1.0
  Ti  Ti152  1  0.14972463  0.35142325  0.24707754  1.0
  Ti  Ti153  1  0.14972463  0.51808992  0.24707754  1.0
  Ti  Ti154  1  0.14972463  0.68475659  0.24707754  1.0
  Ti  Ti155  1  0.14972463  0.85142325  0.24707754  1.0
  Ti  Ti156  1  0.23305796  0.01808992  0.24707754  1.0
  Ti  Ti157  1  0.23305796  0.18475659  0.24707754  1.0
  Ti  Ti158  1  0.23305796  0.35142325  0.24707754  1.0
  Ti  Ti159  1  0.23305796  0.51808992  0.24707754  1.0
  Ti  Ti160  1  0.23305796  0.68475659  0.24707754  1.0
  Ti  Ti161  1  0.23305796  0.85142325  0.24707754  1.0
  Ti  Ti162  1  0.31639130  0.01808992  0.24707754  1.0
  Ti  Ti163  1  0.31639130  0.18475659  0.24707754  1.0
  Ti  Ti164  1  0.31639130  0.35142325  0.24707754  1.0
  Ti  Ti165  1  0.31639130  0.51808992  0.24707754  1.0
  Ti  Ti166  1  0.31639130  0.68475659  0.24707754  1.0
  Ti  Ti167  1  0.31639130  0.85142325  0.24707754  1.0
  Ti  Ti168  1  0.39972463  0.01808992  0.24707754  1.0
  Ti  Ti169  1  0.39972463  0.18475659  0.24707754  1.0
  Ti  Ti170  1  0.39972463  0.35142325  0.24707754  1.0
  Ti  Ti171  1  0.39972463  0.51808992  0.24707754  1.0
  Ti  Ti172  1  0.39972463  0.68475659  0.24707754  1.0
  Ti  Ti173  1  0.39972463  0.85142325  0.24707754  1.0
  Ti  Ti174  1  0.48305796  0.01808992  0.24707754  1.0
  Ti  Ti175  1  0.48305796  0.18475659  0.24707754  1.0
  Ti  Ti176  1  0.48305796  0.35142325  0.24707754  1.0
  Ti  Ti177  1  0.48305796  0.51808992  0.24707754  1.0
  Ti  Ti178  1  0.48305796  0.68475659  0.24707754  1.0
  Ti  Ti179  1  0.48305796  0.85142325  0.24707754  1.0
  Ti  Ti180  1  0.56639130  0.01808992  0.24707754  1.0
  Ti  Ti181  1  0.56639130  0.18475659  0.24707754  1.0
  Ti  Ti182  1  0.56639130  0.35142325  0.24707754  1.0
  Ti  Ti183  1  0.56639130  0.51808992  0.24707754  1.0
  Ti  Ti184  1  0.56639130  0.68475659  0.24707754  1.0
  Ti  Ti185  1  0.56639130  0.85142325  0.24707754  1.0
  Ti  Ti186  1  0.64972463  0.01808992  0.24707754  1.0
  Ti  Ti187  1  0.64972463  0.18475659  0.24707754  1.0
  Ti  Ti188  1  0.64972463  0.35142325  0.24707754  1.0
  Ti  Ti189  1  0.64972463  0.51808992  0.24707754  1.0
  Ti  Ti190  1  0.64972463  0.68475659  0.24707754  1.0
  Ti  Ti191  1  0.64972463  0.85142325  0.24707754  1.0
  Ti  Ti192  1  0.73305796  0.01808992  0.24707754  1.0
  Ti  Ti193  1  0.73305796  0.18475659  0.24707754  1.0
  Ti  Ti194  1  0.73305796  0.35142325  0.24707754  1.0
  Ti  Ti195  1  0.73305796  0.51808992  0.24707754  1.0
  Ti  Ti196  1  0.73305796  0.68475659  0.24707754  1.0
  Ti  Ti197  1  0.73305796  0.85142325  0.24707754  1.0
  Ti  Ti198  1  0.81639130  0.01808992  0.24707754  1.0
  Ti  Ti199  1  0.81639130  0.18475659  0.24707754  1.0
  Ti  Ti200  1  0.81639130  0.35142325  0.24707754  1.0
  Ti  Ti201  1  0.81639130  0.51808992  0.24707754  1.0
  Ti  Ti202  1  0.81639130  0.68475659  0.24707754  1.0
  Ti  Ti203  1  0.81639130  0.85142325  0.24707754  1.0
  Ti  Ti204  1  0.89972463  0.01808992  0.24707754  1.0
  Ti  Ti205  1  0.89972463  0.18475659  0.24707754  1.0
  Ti  Ti206  1  0.89972463  0.35142325  0.24707754  1.0
  Ti  Ti207  1  0.89972463  0.51808992  0.24707754  1.0
  Ti  Ti208  1  0.89972463  0.68475659  0.24707754  1.0
  Ti  Ti209  1  0.89972463  0.85142325  0.24707754  1.0
  Ti  Ti210  1  0.98305796  0.01808992  0.24707754  1.0
  Ti  Ti211  1  0.98305796  0.18475659  0.24707754  1.0
  Ti  Ti212  1  0.98305796  0.35142325  0.24707754  1.0
  Ti  Ti213  1  0.98305796  0.51808992  0.24707754  1.0
  Ti  Ti214  1  0.98305796  0.68475659  0.24707754  1.0
  Ti  Ti215  1  0.98305796  0.85142325  0.24707754  1.0
  Ti  Ti216  1  0.04258177  0.00618516  0.31850611  1.0
  Ti  Ti217  1  0.04258177  0.17285182  0.31850611  1.0
  Ti  Ti218  1  0.04258177  0.33951849  0.31850611  1.0
  Ti  Ti219  1  0.04258177  0.50618516  0.31850611  1.0
  Ti  Ti220  1  0.04258177  0.67285182  0.31850611  1.0
  Ti  Ti221  1  0.04258177  0.83951849  0.31850611  1.0
  Ti  Ti222  1  0.12591511  0.00618516  0.31850611  1.0
  Ti  Ti223  1  0.12591511  0.17285182  0.31850611  1.0
  Ti  Ti224  1  0.12591511  0.33951849  0.31850611  1.0
  Ti  Ti225  1  0.12591511  0.50618516  0.31850611  1.0
  Ti  Ti226  1  0.12591511  0.67285182  0.31850611  1.0
  Ti  Ti227  1  0.12591511  0.83951849  0.31850611  1.0
  Ti  Ti228  1  0.20924844  0.00618516  0.31850611  1.0
  Ti  Ti229  1  0.20924844  0.17285182  0.31850611  1.0
  Ti  Ti230  1  0.20924844  0.33951849  0.31850611  1.0
  Ti  Ti231  1  0.20924844  0.50618516  0.31850611  1.0
  Ti  Ti232  1  0.20924844  0.67285182  0.31850611  1.0
  Ti  Ti233  1  0.20924844  0.83951849  0.31850611  1.0
  Ti  Ti234  1  0.29258177  0.00618516  0.31850611  1.0
  Ti  Ti235  1  0.29258177  0.17285182  0.31850611  1.0
  Ti  Ti236  1  0.29258177  0.33951849  0.31850611  1.0
  Ti  Ti237  1  0.29258177  0.50618516  0.31850611  1.0
  Ti  Ti238  1  0.29258177  0.67285182  0.31850611  1.0
  Ti  Ti239  1  0.29258177  0.83951849  0.31850611  1.0
  Ti  Ti240  1  0.37591511  0.00618516  0.31850611  1.0
  Ti  Ti241  1  0.37591511  0.17285182  0.31850611  1.0
  Ti  Ti242  1  0.37591511  0.33951849  0.31850611  1.0
  Ti  Ti243  1  0.37591511  0.50618516  0.31850611  1.0
  Ti  Ti244  1  0.37591511  0.67285182  0.31850611  1.0
  Ti  Ti245  1  0.37591511  0.83951849  0.31850611  1.0
  Ti  Ti246  1  0.45924844  0.00618516  0.31850611  1.0
  Ti  Ti247  1  0.45924844  0.17285182  0.31850611  1.0
  Ti  Ti248  1  0.45924844  0.33951849  0.31850611  1.0
  Ti  Ti249  1  0.45924844  0.50618516  0.31850611  1.0
  Ti  Ti250  1  0.45924844  0.67285182  0.31850611  1.0
  Ti  Ti251  1  0.45924844  0.83951849  0.31850611  1.0
  Ti  Ti252  1  0.54258177  0.00618516  0.31850611  1.0
  Ti  Ti253  1  0.54258177  0.17285182  0.31850611  1.0
  Ti  Ti254  1  0.54258177  0.33951849  0.31850611  1.0
  Ti  Ti255  1  0.54258177  0.50618516  0.31850611  1.0
  Ti  Ti256  1  0.54258177  0.67285182  0.31850611  1.0
  Ti  Ti257  1  0.54258177  0.83951849  0.31850611  1.0
  Ti  Ti258  1  0.62591511  0.00618516  0.31850611  1.0
  Ti  Ti259  1  0.62591511  0.17285182  0.31850611  1.0
  Ti  Ti260  1  0.62591511  0.33951849  0.31850611  1.0
  Ti  Ti261  1  0.62591511  0.50618516  0.31850611  1.0
  Ti  Ti262  1  0.62591511  0.67285182  0.31850611  1.0
  Ti  Ti263  1  0.62591511  0.83951849  0.31850611  1.0
  Ti  Ti264  1  0.70924844  0.00618516  0.31850611  1.0
  Ti  Ti265  1  0.70924844  0.17285182  0.31850611  1.0
  Ti  Ti266  1  0.70924844  0.33951849  0.31850611  1.0
  Ti  Ti267  1  0.70924844  0.50618516  0.31850611  1.0
  Ti  Ti268  1  0.70924844  0.67285182  0.31850611  1.0
  Ti  Ti269  1  0.70924844  0.83951849  0.31850611  1.0
  Ti  Ti270  1  0.79258177  0.00618516  0.31850611  1.0
  Ti  Ti271  1  0.79258177  0.17285182  0.31850611  1.0
  Ti  Ti272  1  0.79258177  0.33951849  0.31850611  1.0
  Ti  Ti273  1  0.79258177  0.50618516  0.31850611  1.0
  Ti  Ti274  1  0.79258177  0.67285182  0.31850611  1.0
  Ti  Ti275  1  0.79258177  0.83951849  0.31850611  1.0
  Ti  Ti276  1  0.87591511  0.00618516  0.31850611  1.0
  Ti  Ti277  1  0.87591511  0.17285182  0.31850611  1.0
  Ti  Ti278  1  0.87591511  0.33951849  0.31850611  1.0
  Ti  Ti279  1  0.87591511  0.50618516  0.31850611  1.0
  Ti  Ti280  1  0.87591511  0.67285182  0.31850611  1.0
  Ti  Ti281  1  0.87591511  0.83951849  0.31850611  1.0
  Ti  Ti282  1  0.95924844  0.00618516  0.31850611  1.0
  Ti  Ti283  1  0.95924844  0.17285182  0.31850611  1.0
  Ti  Ti284  1  0.95924844  0.33951849  0.31850611  1.0
  Ti  Ti285  1  0.95924844  0.50618516  0.31850611  1.0
  Ti  Ti286  1  0.95924844  0.67285182  0.31850611  1.0
  Ti  Ti287  1  0.95924844  0.83951849  0.31850611  1.0
  Ti  Ti288  1  0.06558351  0.06456318  0.25747575  1.0
  Ti  Ti289  1  0.06558351  0.23122985  0.25747575  1.0
  Ti  Ti290  1  0.06558351  0.39789652  0.25747575  1.0
  Ti  Ti291  1  0.06558351  0.56456318  0.25747575  1.0
  Ti  Ti292  1  0.06558351  0.73122985  0.25747575  1.0
  Ti  Ti293  1  0.06558351  0.89789652  0.25747575  1.0
  Ti  Ti294  1  0.14891684  0.06456318  0.25747575  1.0
  Ti  Ti295  1  0.14891684  0.23122985  0.25747575  1.0
  Ti  Ti296  1  0.14891684  0.39789652  0.25747575  1.0
  Ti  Ti297  1  0.14891684  0.56456318  0.25747575  1.0
  Ti  Ti298  1  0.14891684  0.73122985  0.25747575  1.0
  Ti  Ti299  1  0.14891684  0.89789652  0.25747575  1.0
  Ti  Ti300  1  0.23225018  0.06456318  0.25747575  1.0
  Ti  Ti301  1  0.23225018  0.23122985  0.25747575  1.0
  Ti  Ti302  1  0.23225018  0.39789652  0.25747575  1.0
  Ti  Ti303  1  0.23225018  0.56456318  0.25747575  1.0
  Ti  Ti304  1  0.23225018  0.73122985  0.25747575  1.0
  Ti  Ti305  1  0.23225018  0.89789652  0.25747575  1.0
  Ti  Ti306  1  0.31558351  0.06456318  0.25747575  1.0
  Ti  Ti307  1  0.31558351  0.23122985  0.25747575  1.0
  Ti  Ti308  1  0.31558351  0.39789652  0.25747575  1.0
  Ti  Ti309  1  0.31558351  0.56456318  0.25747575  1.0
  Ti  Ti310  1  0.31558351  0.73122985  0.25747575  1.0
  Ti  Ti311  1  0.31558351  0.89789652  0.25747575  1.0
  Ti  Ti312  1  0.39891684  0.06456318  0.25747575  1.0
  Ti  Ti313  1  0.39891684  0.23122985  0.25747575  1.0
  Ti  Ti314  1  0.39891684  0.39789652  0.25747575  1.0
  Ti  Ti315  1  0.39891684  0.56456318  0.25747575  1.0
  Ti  Ti316  1  0.39891684  0.73122985  0.25747575  1.0
  Ti  Ti317  1  0.39891684  0.89789652  0.25747575  1.0
  Ti  Ti318  1  0.48225018  0.06456318  0.25747575  1.0
  Ti  Ti319  1  0.48225018  0.23122985  0.25747575  1.0
  Ti  Ti320  1  0.48225018  0.39789652  0.25747575  1.0
  Ti  Ti321  1  0.48225018  0.56456318  0.25747575  1.0
  Ti  Ti322  1  0.48225018  0.73122985  0.25747575  1.0
  Ti  Ti323  1  0.48225018  0.89789652  0.25747575  1.0
  Ti  Ti324  1  0.56558351  0.06456318  0.25747575  1.0
  Ti  Ti325  1  0.56558351  0.23122985  0.25747575  1.0
  Ti  Ti326  1  0.56558351  0.39789652  0.25747575  1.0
  Ti  Ti327  1  0.56558351  0.56456318  0.25747575  1.0
  Ti  Ti328  1  0.56558351  0.73122985  0.25747575  1.0
  Ti  Ti329  1  0.56558351  0.89789652  0.25747575  1.0
  Ti  Ti330  1  0.64891684  0.06456318  0.25747575  1.0
  Ti  Ti331  1  0.64891684  0.23122985  0.25747575  1.0
  Ti  Ti332  1  0.64891684  0.39789652  0.25747575  1.0
  Ti  Ti333  1  0.64891684  0.56456318  0.25747575  1.0
  Ti  Ti334  1  0.64891684  0.73122985  0.25747575  1.0
  Ti  Ti335  1  0.64891684  0.89789652  0.25747575  1.0
  Ti  Ti336  1  0.73225018  0.06456318  0.25747575  1.0
  Ti  Ti337  1  0.73225018  0.23122985  0.25747575  1.0
  Ti  Ti338  1  0.73225018  0.39789652  0.25747575  1.0
  Ti  Ti339  1  0.73225018  0.56456318  0.25747575  1.0
  Ti  Ti340  1  0.73225018  0.73122985  0.25747575  1.0
  Ti  Ti341  1  0.73225018  0.89789652  0.25747575  1.0
  Ti  Ti342  1  0.81558351  0.06456318  0.25747575  1.0
  Ti  Ti343  1  0.81558351  0.23122985  0.25747575  1.0
  Ti  Ti344  1  0.81558351  0.39789652  0.25747575  1.0
  Ti  Ti345  1  0.81558351  0.56456318  0.25747575  1.0
  Ti  Ti346  1  0.81558351  0.73122985  0.25747575  1.0
  Ti  Ti347  1  0.81558351  0.89789652  0.25747575  1.0
  Ti  Ti348  1  0.89891684  0.06456318  0.25747575  1.0
  Ti  Ti349  1  0.89891684  0.23122985  0.25747575  1.0
  Ti  Ti350  1  0.89891684  0.39789652  0.25747575  1.0
  Ti  Ti351  1  0.89891684  0.56456318  0.25747575  1.0
  Ti  Ti352  1  0.89891684  0.73122985  0.25747575  1.0
  Ti  Ti353  1  0.89891684  0.89789652  0.25747575  1.0
  Ti  Ti354  1  0.98225018  0.06456318  0.25747575  1.0
  Ti  Ti355  1  0.98225018  0.23122985  0.25747575  1.0
  Ti  Ti356  1  0.98225018  0.39789652  0.25747575  1.0
  Ti  Ti357  1  0.98225018  0.56456318  0.25747575  1.0
  Ti  Ti358  1  0.98225018  0.73122985  0.25747575  1.0
  Ti  Ti359  1  0.98225018  0.89789652  0.25747575  1.0
  Ti  Ti360  1  0.04177398  0.05265842  0.32890433  1.0
  Ti  Ti361  1  0.04177398  0.21932509  0.32890433  1.0
  Ti  Ti362  1  0.04177398  0.38599175  0.32890433  1.0
  Ti  Ti363  1  0.04177398  0.55265842  0.32890433  1.0
  Ti  Ti364  1  0.04177398  0.71932509  0.32890433  1.0
  Ti  Ti365  1  0.04177398  0.88599175  0.32890433  1.0
  Ti  Ti366  1  0.12510732  0.05265842  0.32890433  1.0
  Ti  Ti367  1  0.12510732  0.21932509  0.32890433  1.0
  Ti  Ti368  1  0.12510732  0.38599175  0.32890433  1.0
  Ti  Ti369  1  0.12510732  0.55265842  0.32890433  1.0
  Ti  Ti370  1  0.12510732  0.71932509  0.32890433  1.0
  Ti  Ti371  1  0.12510732  0.88599175  0.32890433  1.0
  Ti  Ti372  1  0.20844065  0.05265842  0.32890433  1.0
  Ti  Ti373  1  0.20844065  0.21932509  0.32890433  1.0
  Ti  Ti374  1  0.20844065  0.38599175  0.32890433  1.0
  Ti  Ti375  1  0.20844065  0.55265842  0.32890433  1.0
  Ti  Ti376  1  0.20844065  0.71932509  0.32890433  1.0
  Ti  Ti377  1  0.20844065  0.88599175  0.32890433  1.0
  Ti  Ti378  1  0.29177398  0.05265842  0.32890433  1.0
  Ti  Ti379  1  0.29177398  0.21932509  0.32890433  1.0
  Ti  Ti380  1  0.29177398  0.38599175  0.32890433  1.0
  Ti  Ti381  1  0.29177398  0.55265842  0.32890433  1.0
  Ti  Ti382  1  0.29177398  0.71932509  0.32890433  1.0
  Ti  Ti383  1  0.29177398  0.88599175  0.32890433  1.0
  Ti  Ti384  1  0.37510732  0.05265842  0.32890433  1.0
  Ti  Ti385  1  0.37510732  0.21932509  0.32890433  1.0
  Ti  Ti386  1  0.37510732  0.38599175  0.32890433  1.0
  Ti  Ti387  1  0.37510732  0.55265842  0.32890433  1.0
  Ti  Ti388  1  0.37510732  0.71932509  0.32890433  1.0
  Ti  Ti389  1  0.37510732  0.88599175  0.32890433  1.0
  Ti  Ti390  1  0.45844065  0.05265842  0.32890433  1.0
  Ti  Ti391  1  0.45844065  0.21932509  0.32890433  1.0
  Ti  Ti392  1  0.45844065  0.38599175  0.32890433  1.0
  Ti  Ti393  1  0.45844065  0.55265842  0.32890433  1.0
  Ti  Ti394  1  0.45844065  0.71932509  0.32890433  1.0
  Ti  Ti395  1  0.45844065  0.88599175  0.32890433  1.0
  Ti  Ti396  1  0.54177398  0.05265842  0.32890433  1.0
  Ti  Ti397  1  0.54177398  0.21932509  0.32890433  1.0
  Ti  Ti398  1  0.54177398  0.38599175  0.32890433  1.0
  Ti  Ti399  1  0.54177398  0.55265842  0.32890433  1.0
  Ti  Ti400  1  0.54177398  0.71932509  0.32890433  1.0
  Ti  Ti401  1  0.54177398  0.88599175  0.32890433  1.0
  Ti  Ti402  1  0.62510732  0.05265842  0.32890433  1.0
  Ti  Ti403  1  0.62510732  0.21932509  0.32890433  1.0
  Ti  Ti404  1  0.62510732  0.38599175  0.32890433  1.0
  Ti  Ti405  1  0.62510732  0.55265842  0.32890433  1.0
  Ti  Ti406  1  0.62510732  0.71932509  0.32890433  1.0
  Ti  Ti407  1  0.62510732  0.88599175  0.32890433  1.0
  Ti  Ti408  1  0.70844065  0.05265842  0.32890433  1.0
  Ti  Ti409  1  0.70844065  0.21932509  0.32890433  1.0
  Ti  Ti410  1  0.70844065  0.38599175  0.32890433  1.0
  Ti  Ti411  1  0.70844065  0.55265842  0.32890433  1.0
  Ti  Ti412  1  0.70844065  0.71932509  0.32890433  1.0
  Ti  Ti413  1  0.70844065  0.88599175  0.32890433  1.0
  Ti  Ti414  1  0.79177398  0.05265842  0.32890433  1.0
  Ti  Ti415  1  0.79177398  0.21932509  0.32890433  1.0
  Ti  Ti416  1  0.79177398  0.38599175  0.32890433  1.0
  Ti  Ti417  1  0.79177398  0.55265842  0.32890433  1.0
  Ti  Ti418  1  0.79177398  0.71932509  0.32890433  1.0
  Ti  Ti419  1  0.79177398  0.88599175  0.32890433  1.0
  Ti  Ti420  1  0.87510732  0.05265842  0.32890433  1.0
  Ti  Ti421  1  0.87510732  0.21932509  0.32890433  1.0
  Ti  Ti422  1  0.87510732  0.38599175  0.32890433  1.0
  Ti  Ti423  1  0.87510732  0.55265842  0.32890433  1.0
  Ti  Ti424  1  0.87510732  0.71932509  0.32890433  1.0
  Ti  Ti425  1  0.87510732  0.88599175  0.32890433  1.0
  Ti  Ti426  1  0.95844065  0.05265842  0.32890433  1.0
  Ti  Ti427  1  0.95844065  0.21932509  0.32890433  1.0
  Ti  Ti428  1  0.95844065  0.38599175  0.32890433  1.0
  Ti  Ti429  1  0.95844065  0.55265842  0.32890433  1.0
  Ti  Ti430  1  0.95844065  0.71932509  0.32890433  1.0
  Ti  Ti431  1  0.95844065  0.88599175  0.32890433  1.0
  Ti  Ti432  1  0.02905969  0.16493048  0.24147856  1.0
  Ti  Ti433  1  0.02905969  0.33159715  0.24147856  1.0
  Ti  Ti434  1  0.02905969  0.49826381  0.24147856  1.0
  Ti  Ti435  1  0.02905969  0.66493048  0.24147856  1.0
  Ti  Ti436  1  0.02905969  0.83159715  0.24147856  1.0
  Ti  Ti437  1  0.02905969  0.99826381  0.24147856  1.0
  Ti  Ti438  1  0.11239302  0.16493048  0.24147856  1.0
  Ti  Ti439  1  0.11239302  0.33159715  0.24147856  1.0
  Ti  Ti440  1  0.11239302  0.49826381  0.24147856  1.0
  Ti  Ti441  1  0.11239302  0.66493048  0.24147856  1.0
  Ti  Ti442  1  0.11239302  0.83159715  0.24147856  1.0
  Ti  Ti443  1  0.11239302  0.99826381  0.24147856  1.0
  Ti  Ti444  1  0.19572636  0.16493048  0.24147856  1.0
  Ti  Ti445  1  0.19572636  0.33159715  0.24147856  1.0
  Ti  Ti446  1  0.19572636  0.49826381  0.24147856  1.0
  Ti  Ti447  1  0.19572636  0.66493048  0.24147856  1.0
  Ti  Ti448  1  0.19572636  0.83159715  0.24147856  1.0
  Ti  Ti449  1  0.19572636  0.99826381  0.24147856  1.0
  Ti  Ti450  1  0.27905969  0.16493048  0.24147856  1.0
  Ti  Ti451  1  0.27905969  0.33159715  0.24147856  1.0
  Ti  Ti452  1  0.27905969  0.49826381  0.24147856  1.0
  Ti  Ti453  1  0.27905969  0.66493048  0.24147856  1.0
  Ti  Ti454  1  0.27905969  0.83159715  0.24147856  1.0
  Ti  Ti455  1  0.27905969  0.99826381  0.24147856  1.0
  Ti  Ti456  1  0.36239302  0.16493048  0.24147856  1.0
  Ti  Ti457  1  0.36239302  0.33159715  0.24147856  1.0
  Ti  Ti458  1  0.36239302  0.49826381  0.24147856  1.0
  Ti  Ti459  1  0.36239302  0.66493048  0.24147856  1.0
  Ti  Ti460  1  0.36239302  0.83159715  0.24147856  1.0
  Ti  Ti461  1  0.36239302  0.99826381  0.24147856  1.0
  Ti  Ti462  1  0.44572636  0.16493048  0.24147856  1.0
  Ti  Ti463  1  0.44572636  0.33159715  0.24147856  1.0
  Ti  Ti464  1  0.44572636  0.49826381  0.24147856  1.0
  Ti  Ti465  1  0.44572636  0.66493048  0.24147856  1.0
  Ti  Ti466  1  0.44572636  0.83159715  0.24147856  1.0
  Ti  Ti467  1  0.44572636  0.99826381  0.24147856  1.0
  Ti  Ti468  1  0.52905969  0.16493048  0.24147856  1.0
  Ti  Ti469  1  0.52905969  0.33159715  0.24147856  1.0
  Ti  Ti470  1  0.52905969  0.49826381  0.24147856  1.0
  Ti  Ti471  1  0.52905969  0.66493048  0.24147856  1.0
  Ti  Ti472  1  0.52905969  0.83159715  0.24147856  1.0
  Ti  Ti473  1  0.52905969  0.99826381  0.24147856  1.0
  Ti  Ti474  1  0.61239302  0.16493048  0.24147856  1.0
  Ti  Ti475  1  0.61239302  0.33159715  0.24147856  1.0
  Ti  Ti476  1  0.61239302  0.49826381  0.24147856  1.0
  Ti  Ti477  1  0.61239302  0.66493048  0.24147856  1.0
  Ti  Ti478  1  0.61239302  0.83159715  0.24147856  1.0
  Ti  Ti479  1  0.61239302  0.99826381  0.24147856  1.0
  Ti  Ti480  1  0.69572636  0.16493048  0.24147856  1.0
  Ti  Ti481  1  0.69572636  0.33159715  0.24147856  1.0
  Ti  Ti482  1  0.69572636  0.49826381  0.24147856  1.0
  Ti  Ti483  1  0.69572636  0.66493048  0.24147856  1.0
  Ti  Ti484  1  0.69572636  0.83159715  0.24147856  1.0
  Ti  Ti485  1  0.69572636  0.99826381  0.24147856  1.0
  Ti  Ti486  1  0.77905969  0.16493048  0.24147856  1.0
  Ti  Ti487  1  0.77905969  0.33159715  0.24147856  1.0
  Ti  Ti488  1  0.77905969  0.49826381  0.24147856  1.0
  Ti  Ti489  1  0.77905969  0.66493048  0.24147856  1.0
  Ti  Ti490  1  0.77905969  0.83159715  0.24147856  1.0
  Ti  Ti491  1  0.77905969  0.99826381  0.24147856  1.0
  Ti  Ti492  1  0.86239302  0.16493048  0.24147856  1.0
  Ti  Ti493  1  0.86239302  0.33159715  0.24147856  1.0
  Ti  Ti494  1  0.86239302  0.49826381  0.24147856  1.0
  Ti  Ti495  1  0.86239302  0.66493048  0.24147856  1.0
  Ti  Ti496  1  0.86239302  0.83159715  0.24147856  1.0
  Ti  Ti497  1  0.86239302  0.99826381  0.24147856  1.0
  Ti  Ti498  1  0.94572636  0.16493048  0.24147856  1.0
  Ti  Ti499  1  0.94572636  0.33159715  0.24147856  1.0
  Ti  Ti500  1  0.94572636  0.49826381  0.24147856  1.0
  Ti  Ti501  1  0.94572636  0.66493048  0.24147856  1.0
  Ti  Ti502  1  0.94572636  0.83159715  0.24147856  1.0
  Ti  Ti503  1  0.94572636  0.99826381  0.24147856  1.0
  Ti  Ti504  1  0.00525016  0.15302572  0.31290713  1.0
  Ti  Ti505  1  0.00525016  0.31969239  0.31290713  1.0
  Ti  Ti506  1  0.00525016  0.48635905  0.31290713  1.0
  Ti  Ti507  1  0.00525016  0.65302572  0.31290713  1.0
  Ti  Ti508  1  0.00525016  0.81969239  0.31290713  1.0
  Ti  Ti509  1  0.00525016  0.98635905  0.31290713  1.0
  Ti  Ti510  1  0.08858350  0.15302572  0.31290713  1.0
  Ti  Ti511  1  0.08858350  0.31969239  0.31290713  1.0
  Ti  Ti512  1  0.08858350  0.48635905  0.31290713  1.0
  Ti  Ti513  1  0.08858350  0.65302572  0.31290713  1.0
  Ti  Ti514  1  0.08858350  0.81969239  0.31290713  1.0
  Ti  Ti515  1  0.08858350  0.98635905  0.31290713  1.0
  Ti  Ti516  1  0.17191683  0.15302572  0.31290713  1.0
  Ti  Ti517  1  0.17191683  0.31969239  0.31290713  1.0
  Ti  Ti518  1  0.17191683  0.48635905  0.31290713  1.0
  Ti  Ti519  1  0.17191683  0.65302572  0.31290713  1.0
  Ti  Ti520  1  0.17191683  0.81969239  0.31290713  1.0
  Ti  Ti521  1  0.17191683  0.98635905  0.31290713  1.0
  Ti  Ti522  1  0.25525016  0.15302572  0.31290713  1.0
  Ti  Ti523  1  0.25525016  0.31969239  0.31290713  1.0
  Ti  Ti524  1  0.25525016  0.48635905  0.31290713  1.0
  Ti  Ti525  1  0.25525016  0.65302572  0.31290713  1.0
  Ti  Ti526  1  0.25525016  0.81969239  0.31290713  1.0
  Ti  Ti527  1  0.25525016  0.98635905  0.31290713  1.0
  Ti  Ti528  1  0.33858350  0.15302572  0.31290713  1.0
  Ti  Ti529  1  0.33858350  0.31969239  0.31290713  1.0
  Ti  Ti530  1  0.33858350  0.48635905  0.31290713  1.0
  Ti  Ti531  1  0.33858350  0.65302572  0.31290713  1.0
  Ti  Ti532  1  0.33858350  0.81969239  0.31290713  1.0
  Ti  Ti533  1  0.33858350  0.98635905  0.31290713  1.0
  Ti  Ti534  1  0.42191683  0.15302572  0.31290713  1.0
  Ti  Ti535  1  0.42191683  0.31969239  0.31290713  1.0
  Ti  Ti536  1  0.42191683  0.48635905  0.31290713  1.0
  Ti  Ti537  1  0.42191683  0.65302572  0.31290713  1.0
  Ti  Ti538  1  0.42191683  0.81969239  0.31290713  1.0
  Ti  Ti539  1  0.42191683  0.98635905  0.31290713  1.0
  Ti  Ti540  1  0.50525016  0.15302572  0.31290713  1.0
  Ti  Ti541  1  0.50525016  0.31969239  0.31290713  1.0
  Ti  Ti542  1  0.50525016  0.48635905  0.31290713  1.0
  Ti  Ti543  1  0.50525016  0.65302572  0.31290713  1.0
  Ti  Ti544  1  0.50525016  0.81969239  0.31290713  1.0
  Ti  Ti545  1  0.50525016  0.98635905  0.31290713  1.0
  Ti  Ti546  1  0.58858350  0.15302572  0.31290713  1.0
  Ti  Ti547  1  0.58858350  0.31969239  0.31290713  1.0
  Ti  Ti548  1  0.58858350  0.48635905  0.31290713  1.0
  Ti  Ti549  1  0.58858350  0.65302572  0.31290713  1.0
  Ti  Ti550  1  0.58858350  0.81969239  0.31290713  1.0
  Ti  Ti551  1  0.58858350  0.98635905  0.31290713  1.0
  Ti  Ti552  1  0.67191683  0.15302572  0.31290713  1.0
  Ti  Ti553  1  0.67191683  0.31969239  0.31290713  1.0
  Ti  Ti554  1  0.67191683  0.48635905  0.31290713  1.0
  Ti  Ti555  1  0.67191683  0.65302572  0.31290713  1.0
  Ti  Ti556  1  0.67191683  0.81969239  0.31290713  1.0
  Ti  Ti557  1  0.67191683  0.98635905  0.31290713  1.0
  Ti  Ti558  1  0.75525016  0.15302572  0.31290713  1.0
  Ti  Ti559  1  0.75525016  0.31969239  0.31290713  1.0
  Ti  Ti560  1  0.75525016  0.48635905  0.31290713  1.0
  Ti  Ti561  1  0.75525016  0.65302572  0.31290713  1.0
  Ti  Ti562  1  0.75525016  0.81969239  0.31290713  1.0
  Ti  Ti563  1  0.75525016  0.98635905  0.31290713  1.0
  Ti  Ti564  1  0.83858350  0.15302572  0.31290713  1.0
  Ti  Ti565  1  0.83858350  0.31969239  0.31290713  1.0
  Ti  Ti566  1  0.83858350  0.48635905  0.31290713  1.0
  Ti  Ti567  1  0.83858350  0.65302572  0.31290713  1.0
  Ti  Ti568  1  0.83858350  0.81969239  0.31290713  1.0
  Ti  Ti569  1  0.83858350  0.98635905  0.31290713  1.0
  Ti  Ti570  1  0.92191683  0.15302572  0.31290713  1.0
  Ti  Ti571  1  0.92191683  0.31969239  0.31290713  1.0
  Ti  Ti572  1  0.92191683  0.48635905  0.31290713  1.0
  Ti  Ti573  1  0.92191683  0.65302572  0.31290713  1.0
  Ti  Ti574  1  0.92191683  0.81969239  0.31290713  1.0
  Ti  Ti575  1  0.92191683  0.98635905  0.31290713  1.0
  Ti  Ti576  1  0.01747422  0.13440577  0.27435041  1.0
  Ti  Ti577  1  0.01747422  0.30107244  0.27435041  1.0
  Ti  Ti578  1  0.01747422  0.46773911  0.27435041  1.0
  Ti  Ti579  1  0.01747422  0.63440577  0.27435041  1.0
  Ti  Ti580  1  0.01747422  0.80107244  0.27435041  1.0
  Ti  Ti581  1  0.01747422  0.96773911  0.27435041  1.0
  Ti  Ti582  1  0.10080755  0.13440577  0.27435041  1.0
  Ti  Ti583  1  0.10080755  0.30107244  0.27435041  1.0
  Ti  Ti584  1  0.10080755  0.46773911  0.27435041  1.0
  Ti  Ti585  1  0.10080755  0.63440577  0.27435041  1.0
  Ti  Ti586  1  0.10080755  0.80107244  0.27435041  1.0
  Ti  Ti587  1  0.10080755  0.96773911  0.27435041  1.0
  Ti  Ti588  1  0.18414089  0.13440577  0.27435041  1.0
  Ti  Ti589  1  0.18414089  0.30107244  0.27435041  1.0
  Ti  Ti590  1  0.18414089  0.46773911  0.27435041  1.0
  Ti  Ti591  1  0.18414089  0.63440577  0.27435041  1.0
  Ti  Ti592  1  0.18414089  0.80107244  0.27435041  1.0
  Ti  Ti593  1  0.18414089  0.96773911  0.27435041  1.0
  Ti  Ti594  1  0.26747422  0.13440577  0.27435041  1.0
  Ti  Ti595  1  0.26747422  0.30107244  0.27435041  1.0
  Ti  Ti596  1  0.26747422  0.46773911  0.27435041  1.0
  Ti  Ti597  1  0.26747422  0.63440577  0.27435041  1.0
  Ti  Ti598  1  0.26747422  0.80107244  0.27435041  1.0
  Ti  Ti599  1  0.26747422  0.96773911  0.27435041  1.0
  Ti  Ti600  1  0.35080755  0.13440577  0.27435041  1.0
  Ti  Ti601  1  0.35080755  0.30107244  0.27435041  1.0
  Ti  Ti602  1  0.35080755  0.46773911  0.27435041  1.0
  Ti  Ti603  1  0.35080755  0.63440577  0.27435041  1.0
  Ti  Ti604  1  0.35080755  0.80107244  0.27435041  1.0
  Ti  Ti605  1  0.35080755  0.96773911  0.27435041  1.0
  Ti  Ti606  1  0.43414089  0.13440577  0.27435041  1.0
  Ti  Ti607  1  0.43414089  0.30107244  0.27435041  1.0
  Ti  Ti608  1  0.43414089  0.46773911  0.27435041  1.0
  Ti  Ti609  1  0.43414089  0.63440577  0.27435041  1.0
  Ti  Ti610  1  0.43414089  0.80107244  0.27435041  1.0
  Ti  Ti611  1  0.43414089  0.96773911  0.27435041  1.0
  Ti  Ti612  1  0.51747422  0.13440577  0.27435041  1.0
  Ti  Ti613  1  0.51747422  0.30107244  0.27435041  1.0
  Ti  Ti614  1  0.51747422  0.46773911  0.27435041  1.0
  Ti  Ti615  1  0.51747422  0.63440577  0.27435041  1.0
  Ti  Ti616  1  0.51747422  0.80107244  0.27435041  1.0
  Ti  Ti617  1  0.51747422  0.96773911  0.27435041  1.0
  Ti  Ti618  1  0.60080755  0.13440577  0.27435041  1.0
  Ti  Ti619  1  0.60080755  0.30107244  0.27435041  1.0
  Ti  Ti620  1  0.60080755  0.46773911  0.27435041  1.0
  Ti  Ti621  1  0.60080755  0.63440577  0.27435041  1.0
  Ti  Ti622  1  0.60080755  0.80107244  0.27435041  1.0
  Ti  Ti623  1  0.60080755  0.96773911  0.27435041  1.0
  Ti  Ti624  1  0.68414089  0.13440577  0.27435041  1.0
  Ti  Ti625  1  0.68414089  0.30107244  0.27435041  1.0
  Ti  Ti626  1  0.68414089  0.46773911  0.27435041  1.0
  Ti  Ti627  1  0.68414089  0.63440577  0.27435041  1.0
  Ti  Ti628  1  0.68414089  0.80107244  0.27435041  1.0
  Ti  Ti629  1  0.68414089  0.96773911  0.27435041  1.0
  Ti  Ti630  1  0.76747422  0.13440577  0.27435041  1.0
  Ti  Ti631  1  0.76747422  0.30107244  0.27435041  1.0
  Ti  Ti632  1  0.76747422  0.46773911  0.27435041  1.0
  Ti  Ti633  1  0.76747422  0.63440577  0.27435041  1.0
  Ti  Ti634  1  0.76747422  0.80107244  0.27435041  1.0
  Ti  Ti635  1  0.76747422  0.96773911  0.27435041  1.0
  Ti  Ti636  1  0.85080755  0.13440577  0.27435041  1.0
  Ti  Ti637  1  0.85080755  0.30107244  0.27435041  1.0
  Ti  Ti638  1  0.85080755  0.46773911  0.27435041  1.0
  Ti  Ti639  1  0.85080755  0.63440577  0.27435041  1.0
  Ti  Ti640  1  0.85080755  0.80107244  0.27435041  1.0
  Ti  Ti641  1  0.85080755  0.96773911  0.27435041  1.0
  Ti  Ti642  1  0.93414089  0.13440577  0.27435041  1.0
  Ti  Ti643  1  0.93414089  0.30107244  0.27435041  1.0
  Ti  Ti644  1  0.93414089  0.46773911  0.27435041  1.0
  Ti  Ti645  1  0.93414089  0.63440577  0.27435041  1.0
  Ti  Ti646  1  0.93414089  0.80107244  0.27435041  1.0
  Ti  Ti647  1  0.93414089  0.96773911  0.27435041  1.0
  Ti  Ti648  1  0.07699803  0.12250101  0.34577898  1.0
  Ti  Ti649  1  0.07699803  0.28916768  0.34577898  1.0
  Ti  Ti650  1  0.07699803  0.45583435  0.34577898  1.0
  Ti  Ti651  1  0.07699803  0.62250101  0.34577898  1.0
  Ti  Ti652  1  0.07699803  0.78916768  0.34577898  1.0
  Ti  Ti653  1  0.07699803  0.95583435  0.34577898  1.0
  Ti  Ti654  1  0.16033136  0.12250101  0.34577898  1.0
  Ti  Ti655  1  0.16033136  0.28916768  0.34577898  1.0
  Ti  Ti656  1  0.16033136  0.45583435  0.34577898  1.0
  Ti  Ti657  1  0.16033136  0.62250101  0.34577898  1.0
  Ti  Ti658  1  0.16033136  0.78916768  0.34577898  1.0
  Ti  Ti659  1  0.16033136  0.95583435  0.34577898  1.0
  Ti  Ti660  1  0.24366470  0.12250101  0.34577898  1.0
  Ti  Ti661  1  0.24366470  0.28916768  0.34577898  1.0
  Ti  Ti662  1  0.24366470  0.45583435  0.34577898  1.0
  Ti  Ti663  1  0.24366470  0.62250101  0.34577898  1.0
  Ti  Ti664  1  0.24366470  0.78916768  0.34577898  1.0
  Ti  Ti665  1  0.24366470  0.95583435  0.34577898  1.0
  Ti  Ti666  1  0.32699803  0.12250101  0.34577898  1.0
  Ti  Ti667  1  0.32699803  0.28916768  0.34577898  1.0
  Ti  Ti668  1  0.32699803  0.45583435  0.34577898  1.0
  Ti  Ti669  1  0.32699803  0.62250101  0.34577898  1.0
  Ti  Ti670  1  0.32699803  0.78916768  0.34577898  1.0
  Ti  Ti671  1  0.32699803  0.95583435  0.34577898  1.0
  Ti  Ti672  1  0.41033136  0.12250101  0.34577898  1.0
  Ti  Ti673  1  0.41033136  0.28916768  0.34577898  1.0
  Ti  Ti674  1  0.41033136  0.45583435  0.34577898  1.0
  Ti  Ti675  1  0.41033136  0.62250101  0.34577898  1.0
  Ti  Ti676  1  0.41033136  0.78916768  0.34577898  1.0
  Ti  Ti677  1  0.41033136  0.95583435  0.34577898  1.0
  Ti  Ti678  1  0.49366470  0.12250101  0.34577898  1.0
  Ti  Ti679  1  0.49366470  0.28916768  0.34577898  1.0
  Ti  Ti680  1  0.49366470  0.45583435  0.34577898  1.0
  Ti  Ti681  1  0.49366470  0.62250101  0.34577898  1.0
  Ti  Ti682  1  0.49366470  0.78916768  0.34577898  1.0
  Ti  Ti683  1  0.49366470  0.95583435  0.34577898  1.0
  Ti  Ti684  1  0.57699803  0.12250101  0.34577898  1.0
  Ti  Ti685  1  0.57699803  0.28916768  0.34577898  1.0
  Ti  Ti686  1  0.57699803  0.45583435  0.34577898  1.0
  Ti  Ti687  1  0.57699803  0.62250101  0.34577898  1.0
  Ti  Ti688  1  0.57699803  0.78916768  0.34577898  1.0
  Ti  Ti689  1  0.57699803  0.95583435  0.34577898  1.0
  Ti  Ti690  1  0.66033136  0.12250101  0.34577898  1.0
  Ti  Ti691  1  0.66033136  0.28916768  0.34577898  1.0
  Ti  Ti692  1  0.66033136  0.45583435  0.34577898  1.0
  Ti  Ti693  1  0.66033136  0.62250101  0.34577898  1.0
  Ti  Ti694  1  0.66033136  0.78916768  0.34577898  1.0
  Ti  Ti695  1  0.66033136  0.95583435  0.34577898  1.0
  Ti  Ti696  1  0.74366470  0.12250101  0.34577898  1.0
  Ti  Ti697  1  0.74366470  0.28916768  0.34577898  1.0
  Ti  Ti698  1  0.74366470  0.45583435  0.34577898  1.0
  Ti  Ti699  1  0.74366470  0.62250101  0.34577898  1.0
  Ti  Ti700  1  0.74366470  0.78916768  0.34577898  1.0
  Ti  Ti701  1  0.74366470  0.95583435  0.34577898  1.0
  Ti  Ti702  1  0.82699803  0.12250101  0.34577898  1.0
  Ti  Ti703  1  0.82699803  0.28916768  0.34577898  1.0
  Ti  Ti704  1  0.82699803  0.45583435  0.34577898  1.0
  Ti  Ti705  1  0.82699803  0.62250101  0.34577898  1.0
  Ti  Ti706  1  0.82699803  0.78916768  0.34577898  1.0
  Ti  Ti707  1  0.82699803  0.95583435  0.34577898  1.0
  Ti  Ti708  1  0.91033136  0.12250101  0.34577898  1.0
  Ti  Ti709  1  0.91033136  0.28916768  0.34577898  1.0
  Ti  Ti710  1  0.91033136  0.45583435  0.34577898  1.0
  Ti  Ti711  1  0.91033136  0.62250101  0.34577898  1.0
  Ti  Ti712  1  0.91033136  0.78916768  0.34577898  1.0
  Ti  Ti713  1  0.91033136  0.95583435  0.34577898  1.0
  Ti  Ti714  1  0.99366470  0.12250101  0.34577898  1.0
  Ti  Ti715  1  0.99366470  0.28916768  0.34577898  1.0
  Ti  Ti716  1  0.99366470  0.45583435  0.34577898  1.0
  Ti  Ti717  1  0.99366470  0.62250101  0.34577898  1.0
  Ti  Ti718  1  0.99366470  0.78916768  0.34577898  1.0
  Ti  Ti719  1  0.99366470  0.95583435  0.34577898  1.0
  Ti  Ti720  1  0.01956576  0.08438799  0.26309399  1.0
  Ti  Ti721  1  0.01956576  0.25105466  0.26309399  1.0
  Ti  Ti722  1  0.01956576  0.41772132  0.26309399  1.0
  Ti  Ti723  1  0.01956576  0.58438799  0.26309399  1.0
  Ti  Ti724  1  0.01956576  0.75105466  0.26309399  1.0
  Ti  Ti725  1  0.01956576  0.91772132  0.26309399  1.0
  Ti  Ti726  1  0.10289909  0.08438799  0.26309399  1.0
  Ti  Ti727  1  0.10289909  0.25105466  0.26309399  1.0
  Ti  Ti728  1  0.10289909  0.41772132  0.26309399  1.0
  Ti  Ti729  1  0.10289909  0.58438799  0.26309399  1.0
  Ti  Ti730  1  0.10289909  0.75105466  0.26309399  1.0
  Ti  Ti731  1  0.10289909  0.91772132  0.26309399  1.0
  Ti  Ti732  1  0.18623242  0.08438799  0.26309399  1.0
  Ti  Ti733  1  0.18623242  0.25105466  0.26309399  1.0
  Ti  Ti734  1  0.18623242  0.41772132  0.26309399  1.0
  Ti  Ti735  1  0.18623242  0.58438799  0.26309399  1.0
  Ti  Ti736  1  0.18623242  0.75105466  0.26309399  1.0
  Ti  Ti737  1  0.18623242  0.91772132  0.26309399  1.0
  Ti  Ti738  1  0.26956576  0.08438799  0.26309399  1.0
  Ti  Ti739  1  0.26956576  0.25105466  0.26309399  1.0
  Ti  Ti740  1  0.26956576  0.41772132  0.26309399  1.0
  Ti  Ti741  1  0.26956576  0.58438799  0.26309399  1.0
  Ti  Ti742  1  0.26956576  0.75105466  0.26309399  1.0
  Ti  Ti743  1  0.26956576  0.91772132  0.26309399  1.0
  Ti  Ti744  1  0.35289909  0.08438799  0.26309399  1.0
  Ti  Ti745  1  0.35289909  0.25105466  0.26309399  1.0
  Ti  Ti746  1  0.35289909  0.41772132  0.26309399  1.0
  Ti  Ti747  1  0.35289909  0.58438799  0.26309399  1.0
  Ti  Ti748  1  0.35289909  0.75105466  0.26309399  1.0
  Ti  Ti749  1  0.35289909  0.91772132  0.26309399  1.0
  Ti  Ti750  1  0.43623242  0.08438799  0.26309399  1.0
  Ti  Ti751  1  0.43623242  0.25105466  0.26309399  1.0
  Ti  Ti752  1  0.43623242  0.41772132  0.26309399  1.0
  Ti  Ti753  1  0.43623242  0.58438799  0.26309399  1.0
  Ti  Ti754  1  0.43623242  0.75105466  0.26309399  1.0
  Ti  Ti755  1  0.43623242  0.91772132  0.26309399  1.0
  Ti  Ti756  1  0.51956576  0.08438799  0.26309399  1.0
  Ti  Ti757  1  0.51956576  0.25105466  0.26309399  1.0
  Ti  Ti758  1  0.51956576  0.41772132  0.26309399  1.0
  Ti  Ti759  1  0.51956576  0.58438799  0.26309399  1.0
  Ti  Ti760  1  0.51956576  0.75105466  0.26309399  1.0
  Ti  Ti761  1  0.51956576  0.91772132  0.26309399  1.0
  Ti  Ti762  1  0.60289909  0.08438799  0.26309399  1.0
  Ti  Ti763  1  0.60289909  0.25105466  0.26309399  1.0
  Ti  Ti764  1  0.60289909  0.41772132  0.26309399  1.0
  Ti  Ti765  1  0.60289909  0.58438799  0.26309399  1.0
  Ti  Ti766  1  0.60289909  0.75105466  0.26309399  1.0
  Ti  Ti767  1  0.60289909  0.91772132  0.26309399  1.0
  Ti  Ti768  1  0.68623242  0.08438799  0.26309399  1.0
  Ti  Ti769  1  0.68623242  0.25105466  0.26309399  1.0
  Ti  Ti770  1  0.68623242  0.41772132  0.26309399  1.0
  Ti  Ti771  1  0.68623242  0.58438799  0.26309399  1.0
  Ti  Ti772  1  0.68623242  0.75105466  0.26309399  1.0
  Ti  Ti773  1  0.68623242  0.91772132  0.26309399  1.0
  Ti  Ti774  1  0.76956576  0.08438799  0.26309399  1.0
  Ti  Ti775  1  0.76956576  0.25105466  0.26309399  1.0
  Ti  Ti776  1  0.76956576  0.41772132  0.26309399  1.0
  Ti  Ti777  1  0.76956576  0.58438799  0.26309399  1.0
  Ti  Ti778  1  0.76956576  0.75105466  0.26309399  1.0
  Ti  Ti779  1  0.76956576  0.91772132  0.26309399  1.0
  Ti  Ti780  1  0.85289909  0.08438799  0.26309399  1.0
  Ti  Ti781  1  0.85289909  0.25105466  0.26309399  1.0
  Ti  Ti782  1  0.85289909  0.41772132  0.26309399  1.0
  Ti  Ti783  1  0.85289909  0.58438799  0.26309399  1.0
  Ti  Ti784  1  0.85289909  0.75105466  0.26309399  1.0
  Ti  Ti785  1  0.85289909  0.91772132  0.26309399  1.0
  Ti  Ti786  1  0.93623242  0.08438799  0.26309399  1.0
  Ti  Ti787  1  0.93623242  0.25105466  0.26309399  1.0
  Ti  Ti788  1  0.93623242  0.41772132  0.26309399  1.0
  Ti  Ti789  1  0.93623242  0.58438799  0.26309399  1.0
  Ti  Ti790  1  0.93623242  0.75105466  0.26309399  1.0
  Ti  Ti791  1  0.93623242  0.91772132  0.26309399  1.0
  Ti  Ti792  1  0.07908957  0.07248323  0.33452256  1.0
  Ti  Ti793  1  0.07908957  0.23914990  0.33452256  1.0
  Ti  Ti794  1  0.07908957  0.40581656  0.33452256  1.0
  Ti  Ti795  1  0.07908957  0.57248323  0.33452256  1.0
  Ti  Ti796  1  0.07908957  0.73914990  0.33452256  1.0
  Ti  Ti797  1  0.07908957  0.90581656  0.33452256  1.0
  Ti  Ti798  1  0.16242290  0.07248323  0.33452256  1.0
  Ti  Ti799  1  0.16242290  0.23914990  0.33452256  1.0
  Ti  Ti800  1  0.16242290  0.40581656  0.33452256  1.0
  Ti  Ti801  1  0.16242290  0.57248323  0.33452256  1.0
  Ti  Ti802  1  0.16242290  0.73914990  0.33452256  1.0
  Ti  Ti803  1  0.16242290  0.90581656  0.33452256  1.0
  Ti  Ti804  1  0.24575623  0.07248323  0.33452256  1.0
  Ti  Ti805  1  0.24575623  0.23914990  0.33452256  1.0
  Ti  Ti806  1  0.24575623  0.40581656  0.33452256  1.0
  Ti  Ti807  1  0.24575623  0.57248323  0.33452256  1.0
  Ti  Ti808  1  0.24575623  0.73914990  0.33452256  1.0
  Ti  Ti809  1  0.24575623  0.90581656  0.33452256  1.0
  Ti  Ti810  1  0.32908957  0.07248323  0.33452256  1.0
  Ti  Ti811  1  0.32908957  0.23914990  0.33452256  1.0
  Ti  Ti812  1  0.32908957  0.40581656  0.33452256  1.0
  Ti  Ti813  1  0.32908957  0.57248323  0.33452256  1.0
  Ti  Ti814  1  0.32908957  0.73914990  0.33452256  1.0
  Ti  Ti815  1  0.32908957  0.90581656  0.33452256  1.0
  Ti  Ti816  1  0.41242290  0.07248323  0.33452256  1.0
  Ti  Ti817  1  0.41242290  0.23914990  0.33452256  1.0
  Ti  Ti818  1  0.41242290  0.40581656  0.33452256  1.0
  Ti  Ti819  1  0.41242290  0.57248323  0.33452256  1.0
  Ti  Ti820  1  0.41242290  0.73914990  0.33452256  1.0
  Ti  Ti821  1  0.41242290  0.90581656  0.33452256  1.0
  Ti  Ti822  1  0.49575623  0.07248323  0.33452256  1.0
  Ti  Ti823  1  0.49575623  0.23914990  0.33452256  1.0
  Ti  Ti824  1  0.49575623  0.40581656  0.33452256  1.0
  Ti  Ti825  1  0.49575623  0.57248323  0.33452256  1.0
  Ti  Ti826  1  0.49575623  0.73914990  0.33452256  1.0
  Ti  Ti827  1  0.49575623  0.90581656  0.33452256  1.0
  Ti  Ti828  1  0.57908957  0.07248323  0.33452256  1.0
  Ti  Ti829  1  0.57908957  0.23914990  0.33452256  1.0
  Ti  Ti830  1  0.57908957  0.40581656  0.33452256  1.0
  Ti  Ti831  1  0.57908957  0.57248323  0.33452256  1.0
  Ti  Ti832  1  0.57908957  0.73914990  0.33452256  1.0
  Ti  Ti833  1  0.57908957  0.90581656  0.33452256  1.0
  Ti  Ti834  1  0.66242290  0.07248323  0.33452256  1.0
  Ti  Ti835  1  0.66242290  0.23914990  0.33452256  1.0
  Ti  Ti836  1  0.66242290  0.40581656  0.33452256  1.0
  Ti  Ti837  1  0.66242290  0.57248323  0.33452256  1.0
  Ti  Ti838  1  0.66242290  0.73914990  0.33452256  1.0
  Ti  Ti839  1  0.66242290  0.90581656  0.33452256  1.0
  Ti  Ti840  1  0.74575623  0.07248323  0.33452256  1.0
  Ti  Ti841  1  0.74575623  0.23914990  0.33452256  1.0
  Ti  Ti842  1  0.74575623  0.40581656  0.33452256  1.0
  Ti  Ti843  1  0.74575623  0.57248323  0.33452256  1.0
  Ti  Ti844  1  0.74575623  0.73914990  0.33452256  1.0
  Ti  Ti845  1  0.74575623  0.90581656  0.33452256  1.0
  Ti  Ti846  1  0.82908957  0.07248323  0.33452256  1.0
  Ti  Ti847  1  0.82908957  0.23914990  0.33452256  1.0
  Ti  Ti848  1  0.82908957  0.40581656  0.33452256  1.0
  Ti  Ti849  1  0.82908957  0.57248323  0.33452256  1.0
  Ti  Ti850  1  0.82908957  0.73914990  0.33452256  1.0
  Ti  Ti851  1  0.82908957  0.90581656  0.33452256  1.0
  Ti  Ti852  1  0.91242290  0.07248323  0.33452256  1.0
  Ti  Ti853  1  0.91242290  0.23914990  0.33452256  1.0
  Ti  Ti854  1  0.91242290  0.40581656  0.33452256  1.0
  Ti  Ti855  1  0.91242290  0.57248323  0.33452256  1.0
  Ti  Ti856  1  0.91242290  0.73914990  0.33452256  1.0
  Ti  Ti857  1  0.91242290  0.90581656  0.33452256  1.0
  Ti  Ti858  1  0.99575623  0.07248323  0.33452256  1.0
  Ti  Ti859  1  0.99575623  0.23914990  0.33452256  1.0
  Ti  Ti860  1  0.99575623  0.40581656  0.33452256  1.0
  Ti  Ti861  1  0.99575623  0.57248323  0.33452256  1.0
  Ti  Ti862  1  0.99575623  0.73914990  0.33452256  1.0
  Ti  Ti863  1  0.99575623  0.90581656  0.33452256  1.0
  Ti  Ti864  1  0.07787711  0.04725339  0.21655360  1.0
  Ti  Ti865  1  0.07787711  0.21392006  0.21655360  1.0
  Ti  Ti866  1  0.07787711  0.38058673  0.21655360  1.0
  Ti  Ti867  1  0.07787711  0.54725339  0.21655360  1.0
  Ti  Ti868  1  0.07787711  0.71392006  0.21655360  1.0
  Ti  Ti869  1  0.07787711  0.88058673  0.21655360  1.0
  Ti  Ti870  1  0.16121045  0.04725339  0.21655360  1.0
  Ti  Ti871  1  0.16121045  0.21392006  0.21655360  1.0
  Ti  Ti872  1  0.16121045  0.38058673  0.21655360  1.0
  Ti  Ti873  1  0.16121045  0.54725339  0.21655360  1.0
  Ti  Ti874  1  0.16121045  0.71392006  0.21655360  1.0
  Ti  Ti875  1  0.16121045  0.88058673  0.21655360  1.0
  Ti  Ti876  1  0.24454378  0.04725339  0.21655360  1.0
  Ti  Ti877  1  0.24454378  0.21392006  0.21655360  1.0
  Ti  Ti878  1  0.24454378  0.38058673  0.21655360  1.0
  Ti  Ti879  1  0.24454378  0.54725339  0.21655360  1.0
  Ti  Ti880  1  0.24454378  0.71392006  0.21655360  1.0
  Ti  Ti881  1  0.24454378  0.88058673  0.21655360  1.0
  Ti  Ti882  1  0.32787711  0.04725339  0.21655360  1.0
  Ti  Ti883  1  0.32787711  0.21392006  0.21655360  1.0
  Ti  Ti884  1  0.32787711  0.38058673  0.21655360  1.0
  Ti  Ti885  1  0.32787711  0.54725339  0.21655360  1.0
  Ti  Ti886  1  0.32787711  0.71392006  0.21655360  1.0
  Ti  Ti887  1  0.32787711  0.88058673  0.21655360  1.0
  Ti  Ti888  1  0.41121045  0.04725339  0.21655360  1.0
  Ti  Ti889  1  0.41121045  0.21392006  0.21655360  1.0
  Ti  Ti890  1  0.41121045  0.38058673  0.21655360  1.0
  Ti  Ti891  1  0.41121045  0.54725339  0.21655360  1.0
  Ti  Ti892  1  0.41121045  0.71392006  0.21655360  1.0
  Ti  Ti893  1  0.41121045  0.88058673  0.21655360  1.0
  Ti  Ti894  1  0.49454378  0.04725339  0.21655360  1.0
  Ti  Ti895  1  0.49454378  0.21392006  0.21655360  1.0
  Ti  Ti896  1  0.49454378  0.38058673  0.21655360  1.0
  Ti  Ti897  1  0.49454378  0.54725339  0.21655360  1.0
  Ti  Ti898  1  0.49454378  0.71392006  0.21655360  1.0
  Ti  Ti899  1  0.49454378  0.88058673  0.21655360  1.0
  Ti  Ti900  1  0.57787711  0.04725339  0.21655360  1.0
  Ti  Ti901  1  0.57787711  0.21392006  0.21655360  1.0
  Ti  Ti902  1  0.57787711  0.38058673  0.21655360  1.0
  Ti  Ti903  1  0.57787711  0.54725339  0.21655360  1.0
  Ti  Ti904  1  0.57787711  0.71392006  0.21655360  1.0
  Ti  Ti905  1  0.57787711  0.88058673  0.21655360  1.0
  Ti  Ti906  1  0.66121045  0.04725339  0.21655360  1.0
  Ti  Ti907  1  0.66121045  0.21392006  0.21655360  1.0
  Ti  Ti908  1  0.66121045  0.38058673  0.21655360  1.0
  Ti  Ti909  1  0.66121045  0.54725339  0.21655360  1.0
  Ti  Ti910  1  0.66121045  0.71392006  0.21655360  1.0
  Ti  Ti911  1  0.66121045  0.88058673  0.21655360  1.0
  Ti  Ti912  1  0.74454378  0.04725339  0.21655360  1.0
  Ti  Ti913  1  0.74454378  0.21392006  0.21655360  1.0
  Ti  Ti914  1  0.74454378  0.38058673  0.21655360  1.0
  Ti  Ti915  1  0.74454378  0.54725339  0.21655360  1.0
  Ti  Ti916  1  0.74454378  0.71392006  0.21655360  1.0
  Ti  Ti917  1  0.74454378  0.88058673  0.21655360  1.0
  Ti  Ti918  1  0.82787711  0.04725339  0.21655360  1.0
  Ti  Ti919  1  0.82787711  0.21392006  0.21655360  1.0
  Ti  Ti920  1  0.82787711  0.38058673  0.21655360  1.0
  Ti  Ti921  1  0.82787711  0.54725339  0.21655360  1.0
  Ti  Ti922  1  0.82787711  0.71392006  0.21655360  1.0
  Ti  Ti923  1  0.82787711  0.88058673  0.21655360  1.0
  Ti  Ti924  1  0.91121045  0.04725339  0.21655360  1.0
  Ti  Ti925  1  0.91121045  0.21392006  0.21655360  1.0
  Ti  Ti926  1  0.91121045  0.38058673  0.21655360  1.0
  Ti  Ti927  1  0.91121045  0.54725339  0.21655360  1.0
  Ti  Ti928  1  0.91121045  0.71392006  0.21655360  1.0
  Ti  Ti929  1  0.91121045  0.88058673  0.21655360  1.0
  Ti  Ti930  1  0.99454378  0.04725339  0.21655360  1.0
  Ti  Ti931  1  0.99454378  0.21392006  0.21655360  1.0
  Ti  Ti932  1  0.99454378  0.38058673  0.21655360  1.0
  Ti  Ti933  1  0.99454378  0.54725339  0.21655360  1.0
  Ti  Ti934  1  0.99454378  0.71392006  0.21655360  1.0
  Ti  Ti935  1  0.99454378  0.88058673  0.21655360  1.0
  Ti  Ti936  1  0.05406759  0.03534863  0.28798217  1.0
  Ti  Ti937  1  0.05406759  0.20201530  0.28798217  1.0
  Ti  Ti938  1  0.05406759  0.36868196  0.28798217  1.0
  Ti  Ti939  1  0.05406759  0.53534863  0.28798217  1.0
  Ti  Ti940  1  0.05406759  0.70201530  0.28798217  1.0
  Ti  Ti941  1  0.05406759  0.86868196  0.28798217  1.0
  Ti  Ti942  1  0.13740092  0.03534863  0.28798217  1.0
  Ti  Ti943  1  0.13740092  0.20201530  0.28798217  1.0
  Ti  Ti944  1  0.13740092  0.36868196  0.28798217  1.0
  Ti  Ti945  1  0.13740092  0.53534863  0.28798217  1.0
  Ti  Ti946  1  0.13740092  0.70201530  0.28798217  1.0
  Ti  Ti947  1  0.13740092  0.86868196  0.28798217  1.0
  Ti  Ti948  1  0.22073426  0.03534863  0.28798217  1.0
  Ti  Ti949  1  0.22073426  0.20201530  0.28798217  1.0
  Ti  Ti950  1  0.22073426  0.36868196  0.28798217  1.0
  Ti  Ti951  1  0.22073426  0.53534863  0.28798217  1.0
  Ti  Ti952  1  0.22073426  0.70201530  0.28798217  1.0
  Ti  Ti953  1  0.22073426  0.86868196  0.28798217  1.0
  Ti  Ti954  1  0.30406759  0.03534863  0.28798217  1.0
  Ti  Ti955  1  0.30406759  0.20201530  0.28798217  1.0
  Ti  Ti956  1  0.30406759  0.36868196  0.28798217  1.0
  Ti  Ti957  1  0.30406759  0.53534863  0.28798217  1.0
  Ti  Ti958  1  0.30406759  0.70201530  0.28798217  1.0
  Ti  Ti959  1  0.30406759  0.86868196  0.28798217  1.0
  Ti  Ti960  1  0.38740092  0.03534863  0.28798217  1.0
  Ti  Ti961  1  0.38740092  0.20201530  0.28798217  1.0
  Ti  Ti962  1  0.38740092  0.36868196  0.28798217  1.0
  Ti  Ti963  1  0.38740092  0.53534863  0.28798217  1.0
  Ti  Ti964  1  0.38740092  0.70201530  0.28798217  1.0
  Ti  Ti965  1  0.38740092  0.86868196  0.28798217  1.0
  Ti  Ti966  1  0.47073426  0.03534863  0.28798217  1.0
  Ti  Ti967  1  0.47073426  0.20201530  0.28798217  1.0
  Ti  Ti968  1  0.47073426  0.36868196  0.28798217  1.0
  Ti  Ti969  1  0.47073426  0.53534863  0.28798217  1.0
  Ti  Ti970  1  0.47073426  0.70201530  0.28798217  1.0
  Ti  Ti971  1  0.47073426  0.86868196  0.28798217  1.0
  Ti  Ti972  1  0.55406759  0.03534863  0.28798217  1.0
  Ti  Ti973  1  0.55406759  0.20201530  0.28798217  1.0
  Ti  Ti974  1  0.55406759  0.36868196  0.28798217  1.0
  Ti  Ti975  1  0.55406759  0.53534863  0.28798217  1.0
  Ti  Ti976  1  0.55406759  0.70201530  0.28798217  1.0
  Ti  Ti977  1  0.55406759  0.86868196  0.28798217  1.0
  Ti  Ti978  1  0.63740092  0.03534863  0.28798217  1.0
  Ti  Ti979  1  0.63740092  0.20201530  0.28798217  1.0
  Ti  Ti980  1  0.63740092  0.36868196  0.28798217  1.0
  Ti  Ti981  1  0.63740092  0.53534863  0.28798217  1.0
  Ti  Ti982  1  0.63740092  0.70201530  0.28798217  1.0
  Ti  Ti983  1  0.63740092  0.86868196  0.28798217  1.0
  Ti  Ti984  1  0.72073426  0.03534863  0.28798217  1.0
  Ti  Ti985  1  0.72073426  0.20201530  0.28798217  1.0
  Ti  Ti986  1  0.72073426  0.36868196  0.28798217  1.0
  Ti  Ti987  1  0.72073426  0.53534863  0.28798217  1.0
  Ti  Ti988  1  0.72073426  0.70201530  0.28798217  1.0
  Ti  Ti989  1  0.72073426  0.86868196  0.28798217  1.0
  Ti  Ti990  1  0.80406759  0.03534863  0.28798217  1.0
  Ti  Ti991  1  0.80406759  0.20201530  0.28798217  1.0
  Ti  Ti992  1  0.80406759  0.36868196  0.28798217  1.0
  Ti  Ti993  1  0.80406759  0.53534863  0.28798217  1.0
  Ti  Ti994  1  0.80406759  0.70201530  0.28798217  1.0
  Ti  Ti995  1  0.80406759  0.86868196  0.28798217  1.0
  Ti  Ti996  1  0.88740092  0.03534863  0.28798217  1.0
  Ti  Ti997  1  0.88740092  0.20201530  0.28798217  1.0
  Ti  Ti998  1  0.88740092  0.36868196  0.28798217  1.0
  Ti  Ti999  1  0.88740092  0.53534863  0.28798217  1.0
  Ti  Ti1000  1  0.88740092  0.70201530  0.28798217  1.0
  Ti  Ti1001  1  0.88740092  0.86868196  0.28798217  1.0
  Ti  Ti1002  1  0.97073426  0.03534863  0.28798217  1.0
  Ti  Ti1003  1  0.97073426  0.20201530  0.28798217  1.0
  Ti  Ti1004  1  0.97073426  0.36868196  0.28798217  1.0
  Ti  Ti1005  1  0.97073426  0.53534863  0.28798217  1.0
  Ti  Ti1006  1  0.97073426  0.70201530  0.28798217  1.0
  Ti  Ti1007  1  0.97073426  0.86868196  0.28798217  1.0
  Ti  Ti1008  1  0.07088769  0.13850440  0.23594663  1.0
  Ti  Ti1009  1  0.07088769  0.30517107  0.23594663  1.0
  Ti  Ti1010  1  0.07088769  0.47183774  0.23594663  1.0
  Ti  Ti1011  1  0.07088769  0.63850440  0.23594663  1.0
  Ti  Ti1012  1  0.07088769  0.80517107  0.23594663  1.0
  Ti  Ti1013  1  0.07088769  0.97183774  0.23594663  1.0
  Ti  Ti1014  1  0.15422102  0.13850440  0.23594663  1.0
  Ti  Ti1015  1  0.15422102  0.30517107  0.23594663  1.0
  Ti  Ti1016  1  0.15422102  0.47183774  0.23594663  1.0
  Ti  Ti1017  1  0.15422102  0.63850440  0.23594663  1.0
  Ti  Ti1018  1  0.15422102  0.80517107  0.23594663  1.0
  Ti  Ti1019  1  0.15422102  0.97183774  0.23594663  1.0
  Ti  Ti1020  1  0.23755435  0.13850440  0.23594663  1.0
  Ti  Ti1021  1  0.23755435  0.30517107  0.23594663  1.0
  Ti  Ti1022  1  0.23755435  0.47183774  0.23594663  1.0
  Ti  Ti1023  1  0.23755435  0.63850440  0.23594663  1.0
  Ti  Ti1024  1  0.23755435  0.80517107  0.23594663  1.0
  Ti  Ti1025  1  0.23755435  0.97183774  0.23594663  1.0
  Ti  Ti1026  1  0.32088769  0.13850440  0.23594663  1.0
  Ti  Ti1027  1  0.32088769  0.30517107  0.23594663  1.0
  Ti  Ti1028  1  0.32088769  0.47183774  0.23594663  1.0
  Ti  Ti1029  1  0.32088769  0.63850440  0.23594663  1.0
  Ti  Ti1030  1  0.32088769  0.80517107  0.23594663  1.0
  Ti  Ti1031  1  0.32088769  0.97183774  0.23594663  1.0
  Ti  Ti1032  1  0.40422102  0.13850440  0.23594663  1.0
  Ti  Ti1033  1  0.40422102  0.30517107  0.23594663  1.0
  Ti  Ti1034  1  0.40422102  0.47183774  0.23594663  1.0
  Ti  Ti1035  1  0.40422102  0.63850440  0.23594663  1.0
  Ti  Ti1036  1  0.40422102  0.80517107  0.23594663  1.0
  Ti  Ti1037  1  0.40422102  0.97183774  0.23594663  1.0
  Ti  Ti1038  1  0.48755435  0.13850440  0.23594663  1.0
  Ti  Ti1039  1  0.48755435  0.30517107  0.23594663  1.0
  Ti  Ti1040  1  0.48755435  0.47183774  0.23594663  1.0
  Ti  Ti1041  1  0.48755435  0.63850440  0.23594663  1.0
  Ti  Ti1042  1  0.48755435  0.80517107  0.23594663  1.0
  Ti  Ti1043  1  0.48755435  0.97183774  0.23594663  1.0
  Ti  Ti1044  1  0.57088769  0.13850440  0.23594663  1.0
  Ti  Ti1045  1  0.57088769  0.30517107  0.23594663  1.0
  Ti  Ti1046  1  0.57088769  0.47183774  0.23594663  1.0
  Ti  Ti1047  1  0.57088769  0.63850440  0.23594663  1.0
  Ti  Ti1048  1  0.57088769  0.80517107  0.23594663  1.0
  Ti  Ti1049  1  0.57088769  0.97183774  0.23594663  1.0
  Ti  Ti1050  1  0.65422102  0.13850440  0.23594663  1.0
  Ti  Ti1051  1  0.65422102  0.30517107  0.23594663  1.0
  Ti  Ti1052  1  0.65422102  0.47183774  0.23594663  1.0
  Ti  Ti1053  1  0.65422102  0.63850440  0.23594663  1.0
  Ti  Ti1054  1  0.65422102  0.80517107  0.23594663  1.0
  Ti  Ti1055  1  0.65422102  0.97183774  0.23594663  1.0
  Ti  Ti1056  1  0.73755435  0.13850440  0.23594663  1.0
  Ti  Ti1057  1  0.73755435  0.30517107  0.23594663  1.0
  Ti  Ti1058  1  0.73755435  0.47183774  0.23594663  1.0
  Ti  Ti1059  1  0.73755435  0.63850440  0.23594663  1.0
  Ti  Ti1060  1  0.73755435  0.80517107  0.23594663  1.0
  Ti  Ti1061  1  0.73755435  0.97183774  0.23594663  1.0
  Ti  Ti1062  1  0.82088769  0.13850440  0.23594663  1.0
  Ti  Ti1063  1  0.82088769  0.30517107  0.23594663  1.0
  Ti  Ti1064  1  0.82088769  0.47183774  0.23594663  1.0
  Ti  Ti1065  1  0.82088769  0.63850440  0.23594663  1.0
  Ti  Ti1066  1  0.82088769  0.80517107  0.23594663  1.0
  Ti  Ti1067  1  0.82088769  0.97183774  0.23594663  1.0
  Ti  Ti1068  1  0.90422102  0.13850440  0.23594663  1.0
  Ti  Ti1069  1  0.90422102  0.30517107  0.23594663  1.0
  Ti  Ti1070  1  0.90422102  0.47183774  0.23594663  1.0
  Ti  Ti1071  1  0.90422102  0.63850440  0.23594663  1.0
  Ti  Ti1072  1  0.90422102  0.80517107  0.23594663  1.0
  Ti  Ti1073  1  0.90422102  0.97183774  0.23594663  1.0
  Ti  Ti1074  1  0.98755435  0.13850440  0.23594663  1.0
  Ti  Ti1075  1  0.98755435  0.30517107  0.23594663  1.0
  Ti  Ti1076  1  0.98755435  0.47183774  0.23594663  1.0
  Ti  Ti1077  1  0.98755435  0.63850440  0.23594663  1.0
  Ti  Ti1078  1  0.98755435  0.80517107  0.23594663  1.0
  Ti  Ti1079  1  0.98755435  0.97183774  0.23594663  1.0
  Ti  Ti1080  1  0.04707816  0.12659964  0.30737520  1.0
  Ti  Ti1081  1  0.04707816  0.29326631  0.30737520  1.0
  Ti  Ti1082  1  0.04707816  0.45993298  0.30737520  1.0
  Ti  Ti1083  1  0.04707816  0.62659964  0.30737520  1.0
  Ti  Ti1084  1  0.04707816  0.79326631  0.30737520  1.0
  Ti  Ti1085  1  0.04707816  0.95993298  0.30737520  1.0
  Ti  Ti1086  1  0.13041150  0.12659964  0.30737520  1.0
  Ti  Ti1087  1  0.13041150  0.29326631  0.30737520  1.0
  Ti  Ti1088  1  0.13041150  0.45993298  0.30737520  1.0
  Ti  Ti1089  1  0.13041150  0.62659964  0.30737520  1.0
  Ti  Ti1090  1  0.13041150  0.79326631  0.30737520  1.0
  Ti  Ti1091  1  0.13041150  0.95993298  0.30737520  1.0
  Ti  Ti1092  1  0.21374483  0.12659964  0.30737520  1.0
  Ti  Ti1093  1  0.21374483  0.29326631  0.30737520  1.0
  Ti  Ti1094  1  0.21374483  0.45993298  0.30737520  1.0
  Ti  Ti1095  1  0.21374483  0.62659964  0.30737520  1.0
  Ti  Ti1096  1  0.21374483  0.79326631  0.30737520  1.0
  Ti  Ti1097  1  0.21374483  0.95993298  0.30737520  1.0
  Ti  Ti1098  1  0.29707816  0.12659964  0.30737520  1.0
  Ti  Ti1099  1  0.29707816  0.29326631  0.30737520  1.0
  Ti  Ti1100  1  0.29707816  0.45993298  0.30737520  1.0
  Ti  Ti1101  1  0.29707816  0.62659964  0.30737520  1.0
  Ti  Ti1102  1  0.29707816  0.79326631  0.30737520  1.0
  Ti  Ti1103  1  0.29707816  0.95993298  0.30737520  1.0
  Ti  Ti1104  1  0.38041150  0.12659964  0.30737520  1.0
  Ti  Ti1105  1  0.38041150  0.29326631  0.30737520  1.0
  Ti  Ti1106  1  0.38041150  0.45993298  0.30737520  1.0
  Ti  Ti1107  1  0.38041150  0.62659964  0.30737520  1.0
  Ti  Ti1108  1  0.38041150  0.79326631  0.30737520  1.0
  Ti  Ti1109  1  0.38041150  0.95993298  0.30737520  1.0
  Ti  Ti1110  1  0.46374483  0.12659964  0.30737520  1.0
  Ti  Ti1111  1  0.46374483  0.29326631  0.30737520  1.0
  Ti  Ti1112  1  0.46374483  0.45993298  0.30737520  1.0
  Ti  Ti1113  1  0.46374483  0.62659964  0.30737520  1.0
  Ti  Ti1114  1  0.46374483  0.79326631  0.30737520  1.0
  Ti  Ti1115  1  0.46374483  0.95993298  0.30737520  1.0
  Ti  Ti1116  1  0.54707816  0.12659964  0.30737520  1.0
  Ti  Ti1117  1  0.54707816  0.29326631  0.30737520  1.0
  Ti  Ti1118  1  0.54707816  0.45993298  0.30737520  1.0
  Ti  Ti1119  1  0.54707816  0.62659964  0.30737520  1.0
  Ti  Ti1120  1  0.54707816  0.79326631  0.30737520  1.0
  Ti  Ti1121  1  0.54707816  0.95993298  0.30737520  1.0
  Ti  Ti1122  1  0.63041150  0.12659964  0.30737520  1.0
  Ti  Ti1123  1  0.63041150  0.29326631  0.30737520  1.0
  Ti  Ti1124  1  0.63041150  0.45993298  0.30737520  1.0
  Ti  Ti1125  1  0.63041150  0.62659964  0.30737520  1.0
  Ti  Ti1126  1  0.63041150  0.79326631  0.30737520  1.0
  Ti  Ti1127  1  0.63041150  0.95993298  0.30737520  1.0
  Ti  Ti1128  1  0.71374483  0.12659964  0.30737520  1.0
  Ti  Ti1129  1  0.71374483  0.29326631  0.30737520  1.0
  Ti  Ti1130  1  0.71374483  0.45993298  0.30737520  1.0
  Ti  Ti1131  1  0.71374483  0.62659964  0.30737520  1.0
  Ti  Ti1132  1  0.71374483  0.79326631  0.30737520  1.0
  Ti  Ti1133  1  0.71374483  0.95993298  0.30737520  1.0
  Ti  Ti1134  1  0.79707816  0.12659964  0.30737520  1.0
  Ti  Ti1135  1  0.79707816  0.29326631  0.30737520  1.0
  Ti  Ti1136  1  0.79707816  0.45993298  0.30737520  1.0
  Ti  Ti1137  1  0.79707816  0.62659964  0.30737520  1.0
  Ti  Ti1138  1  0.79707816  0.79326631  0.30737520  1.0
  Ti  Ti1139  1  0.79707816  0.95993298  0.30737520  1.0
  Ti  Ti1140  1  0.88041150  0.12659964  0.30737520  1.0
  Ti  Ti1141  1  0.88041150  0.29326631  0.30737520  1.0
  Ti  Ti1142  1  0.88041150  0.45993298  0.30737520  1.0
  Ti  Ti1143  1  0.88041150  0.62659964  0.30737520  1.0
  Ti  Ti1144  1  0.88041150  0.79326631  0.30737520  1.0
  Ti  Ti1145  1  0.88041150  0.95993298  0.30737520  1.0
  Ti  Ti1146  1  0.96374483  0.12659964  0.30737520  1.0
  Ti  Ti1147  1  0.96374483  0.29326631  0.30737520  1.0
  Ti  Ti1148  1  0.96374483  0.45993298  0.30737520  1.0
  Ti  Ti1149  1  0.96374483  0.62659964  0.30737520  1.0
  Ti  Ti1150  1  0.96374483  0.79326631  0.30737520  1.0
  Ti  Ti1151  1  0.96374483  0.95993298  0.30737520  1.0
  Ti  Ti1152  1  0.03435296  0.07096975  0.22024790  1.0
  Ti  Ti1153  1  0.03435296  0.23763642  0.22024790  1.0
  Ti  Ti1154  1  0.03435296  0.40430308  0.22024790  1.0
  Ti  Ti1155  1  0.03435296  0.57096975  0.22024790  1.0
  Ti  Ti1156  1  0.03435296  0.73763642  0.22024790  1.0
  Ti  Ti1157  1  0.03435296  0.90430308  0.22024790  1.0
  Ti  Ti1158  1  0.11768629  0.07096975  0.22024790  1.0
  Ti  Ti1159  1  0.11768629  0.23763642  0.22024790  1.0
  Ti  Ti1160  1  0.11768629  0.40430308  0.22024790  1.0
  Ti  Ti1161  1  0.11768629  0.57096975  0.22024790  1.0
  Ti  Ti1162  1  0.11768629  0.73763642  0.22024790  1.0
  Ti  Ti1163  1  0.11768629  0.90430308  0.22024790  1.0
  Ti  Ti1164  1  0.20101963  0.07096975  0.22024790  1.0
  Ti  Ti1165  1  0.20101963  0.23763642  0.22024790  1.0
  Ti  Ti1166  1  0.20101963  0.40430308  0.22024790  1.0
  Ti  Ti1167  1  0.20101963  0.57096975  0.22024790  1.0
  Ti  Ti1168  1  0.20101963  0.73763642  0.22024790  1.0
  Ti  Ti1169  1  0.20101963  0.90430308  0.22024790  1.0
  Ti  Ti1170  1  0.28435296  0.07096975  0.22024790  1.0
  Ti  Ti1171  1  0.28435296  0.23763642  0.22024790  1.0
  Ti  Ti1172  1  0.28435296  0.40430308  0.22024790  1.0
  Ti  Ti1173  1  0.28435296  0.57096975  0.22024790  1.0
  Ti  Ti1174  1  0.28435296  0.73763642  0.22024790  1.0
  Ti  Ti1175  1  0.28435296  0.90430308  0.22024790  1.0
  Ti  Ti1176  1  0.36768629  0.07096975  0.22024790  1.0
  Ti  Ti1177  1  0.36768629  0.23763642  0.22024790  1.0
  Ti  Ti1178  1  0.36768629  0.40430308  0.22024790  1.0
  Ti  Ti1179  1  0.36768629  0.57096975  0.22024790  1.0
  Ti  Ti1180  1  0.36768629  0.73763642  0.22024790  1.0
  Ti  Ti1181  1  0.36768629  0.90430308  0.22024790  1.0
  Ti  Ti1182  1  0.45101963  0.07096975  0.22024790  1.0
  Ti  Ti1183  1  0.45101963  0.23763642  0.22024790  1.0
  Ti  Ti1184  1  0.45101963  0.40430308  0.22024790  1.0
  Ti  Ti1185  1  0.45101963  0.57096975  0.22024790  1.0
  Ti  Ti1186  1  0.45101963  0.73763642  0.22024790  1.0
  Ti  Ti1187  1  0.45101963  0.90430308  0.22024790  1.0
  Ti  Ti1188  1  0.53435296  0.07096975  0.22024790  1.0
  Ti  Ti1189  1  0.53435296  0.23763642  0.22024790  1.0
  Ti  Ti1190  1  0.53435296  0.40430308  0.22024790  1.0
  Ti  Ti1191  1  0.53435296  0.57096975  0.22024790  1.0
  Ti  Ti1192  1  0.53435296  0.73763642  0.22024790  1.0
  Ti  Ti1193  1  0.53435296  0.90430308  0.22024790  1.0
  Ti  Ti1194  1  0.61768629  0.07096975  0.22024790  1.0
  Ti  Ti1195  1  0.61768629  0.23763642  0.22024790  1.0
  Ti  Ti1196  1  0.61768629  0.40430308  0.22024790  1.0
  Ti  Ti1197  1  0.61768629  0.57096975  0.22024790  1.0
  Ti  Ti1198  1  0.61768629  0.73763642  0.22024790  1.0
  Ti  Ti1199  1  0.61768629  0.90430308  0.22024790  1.0
  Ti  Ti1200  1  0.70101963  0.07096975  0.22024790  1.0
  Ti  Ti1201  1  0.70101963  0.23763642  0.22024790  1.0
  Ti  Ti1202  1  0.70101963  0.40430308  0.22024790  1.0
  Ti  Ti1203  1  0.70101963  0.57096975  0.22024790  1.0
  Ti  Ti1204  1  0.70101963  0.73763642  0.22024790  1.0
  Ti  Ti1205  1  0.70101963  0.90430308  0.22024790  1.0
  Ti  Ti1206  1  0.78435296  0.07096975  0.22024790  1.0
  Ti  Ti1207  1  0.78435296  0.23763642  0.22024790  1.0
  Ti  Ti1208  1  0.78435296  0.40430308  0.22024790  1.0
  Ti  Ti1209  1  0.78435296  0.57096975  0.22024790  1.0
  Ti  Ti1210  1  0.78435296  0.73763642  0.22024790  1.0
  Ti  Ti1211  1  0.78435296  0.90430308  0.22024790  1.0
  Ti  Ti1212  1  0.86768629  0.07096975  0.22024790  1.0
  Ti  Ti1213  1  0.86768629  0.23763642  0.22024790  1.0
  Ti  Ti1214  1  0.86768629  0.40430308  0.22024790  1.0
  Ti  Ti1215  1  0.86768629  0.57096975  0.22024790  1.0
  Ti  Ti1216  1  0.86768629  0.73763642  0.22024790  1.0
  Ti  Ti1217  1  0.86768629  0.90430308  0.22024790  1.0
  Ti  Ti1218  1  0.95101963  0.07096975  0.22024790  1.0
  Ti  Ti1219  1  0.95101963  0.23763642  0.22024790  1.0
  Ti  Ti1220  1  0.95101963  0.40430308  0.22024790  1.0
  Ti  Ti1221  1  0.95101963  0.57096975  0.22024790  1.0
  Ti  Ti1222  1  0.95101963  0.73763642  0.22024790  1.0
  Ti  Ti1223  1  0.95101963  0.90430308  0.22024790  1.0
  Ti  Ti1224  1  0.01054344  0.05906499  0.29167647  1.0
  Ti  Ti1225  1  0.01054344  0.22573165  0.29167647  1.0
  Ti  Ti1226  1  0.01054344  0.39239832  0.29167647  1.0
  Ti  Ti1227  1  0.01054344  0.55906499  0.29167647  1.0
  Ti  Ti1228  1  0.01054344  0.72573165  0.29167647  1.0
  Ti  Ti1229  1  0.01054344  0.89239832  0.29167647  1.0
  Ti  Ti1230  1  0.09387677  0.05906499  0.29167647  1.0
  Ti  Ti1231  1  0.09387677  0.22573165  0.29167647  1.0
  Ti  Ti1232  1  0.09387677  0.39239832  0.29167647  1.0
  Ti  Ti1233  1  0.09387677  0.55906499  0.29167647  1.0
  Ti  Ti1234  1  0.09387677  0.72573165  0.29167647  1.0
  Ti  Ti1235  1  0.09387677  0.89239832  0.29167647  1.0
  Ti  Ti1236  1  0.17721010  0.05906499  0.29167647  1.0
  Ti  Ti1237  1  0.17721010  0.22573165  0.29167647  1.0
  Ti  Ti1238  1  0.17721010  0.39239832  0.29167647  1.0
  Ti  Ti1239  1  0.17721010  0.55906499  0.29167647  1.0
  Ti  Ti1240  1  0.17721010  0.72573165  0.29167647  1.0
  Ti  Ti1241  1  0.17721010  0.89239832  0.29167647  1.0
  Ti  Ti1242  1  0.26054344  0.05906499  0.29167647  1.0
  Ti  Ti1243  1  0.26054344  0.22573165  0.29167647  1.0
  Ti  Ti1244  1  0.26054344  0.39239832  0.29167647  1.0
  Ti  Ti1245  1  0.26054344  0.55906499  0.29167647  1.0
  Ti  Ti1246  1  0.26054344  0.72573165  0.29167647  1.0
  Ti  Ti1247  1  0.26054344  0.89239832  0.29167647  1.0
  Ti  Ti1248  1  0.34387677  0.05906499  0.29167647  1.0
  Ti  Ti1249  1  0.34387677  0.22573165  0.29167647  1.0
  Ti  Ti1250  1  0.34387677  0.39239832  0.29167647  1.0
  Ti  Ti1251  1  0.34387677  0.55906499  0.29167647  1.0
  Ti  Ti1252  1  0.34387677  0.72573165  0.29167647  1.0
  Ti  Ti1253  1  0.34387677  0.89239832  0.29167647  1.0
  Ti  Ti1254  1  0.42721010  0.05906499  0.29167647  1.0
  Ti  Ti1255  1  0.42721010  0.22573165  0.29167647  1.0
  Ti  Ti1256  1  0.42721010  0.39239832  0.29167647  1.0
  Ti  Ti1257  1  0.42721010  0.55906499  0.29167647  1.0
  Ti  Ti1258  1  0.42721010  0.72573165  0.29167647  1.0
  Ti  Ti1259  1  0.42721010  0.89239832  0.29167647  1.0
  Ti  Ti1260  1  0.51054344  0.05906499  0.29167647  1.0
  Ti  Ti1261  1  0.51054344  0.22573165  0.29167647  1.0
  Ti  Ti1262  1  0.51054344  0.39239832  0.29167647  1.0
  Ti  Ti1263  1  0.51054344  0.55906499  0.29167647  1.0
  Ti  Ti1264  1  0.51054344  0.72573165  0.29167647  1.0
  Ti  Ti1265  1  0.51054344  0.89239832  0.29167647  1.0
  Ti  Ti1266  1  0.59387677  0.05906499  0.29167647  1.0
  Ti  Ti1267  1  0.59387677  0.22573165  0.29167647  1.0
  Ti  Ti1268  1  0.59387677  0.39239832  0.29167647  1.0
  Ti  Ti1269  1  0.59387677  0.55906499  0.29167647  1.0
  Ti  Ti1270  1  0.59387677  0.72573165  0.29167647  1.0
  Ti  Ti1271  1  0.59387677  0.89239832  0.29167647  1.0
  Ti  Ti1272  1  0.67721010  0.05906499  0.29167647  1.0
  Ti  Ti1273  1  0.67721010  0.22573165  0.29167647  1.0
  Ti  Ti1274  1  0.67721010  0.39239832  0.29167647  1.0
  Ti  Ti1275  1  0.67721010  0.55906499  0.29167647  1.0
  Ti  Ti1276  1  0.67721010  0.72573165  0.29167647  1.0
  Ti  Ti1277  1  0.67721010  0.89239832  0.29167647  1.0
  Ti  Ti1278  1  0.76054344  0.05906499  0.29167647  1.0
  Ti  Ti1279  1  0.76054344  0.22573165  0.29167647  1.0
  Ti  Ti1280  1  0.76054344  0.39239832  0.29167647  1.0
  Ti  Ti1281  1  0.76054344  0.55906499  0.29167647  1.0
  Ti  Ti1282  1  0.76054344  0.72573165  0.29167647  1.0
  Ti  Ti1283  1  0.76054344  0.89239832  0.29167647  1.0
  Ti  Ti1284  1  0.84387677  0.05906499  0.29167647  1.0
  Ti  Ti1285  1  0.84387677  0.22573165  0.29167647  1.0
  Ti  Ti1286  1  0.84387677  0.39239832  0.29167647  1.0
  Ti  Ti1287  1  0.84387677  0.55906499  0.29167647  1.0
  Ti  Ti1288  1  0.84387677  0.72573165  0.29167647  1.0
  Ti  Ti1289  1  0.84387677  0.89239832  0.29167647  1.0
  Ti  Ti1290  1  0.92721010  0.05906499  0.29167647  1.0
  Ti  Ti1291  1  0.92721010  0.22573165  0.29167647  1.0
  Ti  Ti1292  1  0.92721010  0.39239832  0.29167647  1.0
  Ti  Ti1293  1  0.92721010  0.55906499  0.29167647  1.0
  Ti  Ti1294  1  0.92721010  0.72573165  0.29167647  1.0
  Ti  Ti1295  1  0.92721010  0.89239832  0.29167647  1.0
  Ti  Ti1296  1  0.07381358  0.16645417  0.35575047  1.0
  Ti  Ti1297  1  0.07381358  0.33312084  0.35575047  1.0
  Ti  Ti1298  1  0.07381358  0.49978751  0.35575047  1.0
  Ti  Ti1299  1  0.07381358  0.66645417  0.35575047  1.0
  Ti  Ti1300  1  0.07381358  0.83312084  0.35575047  1.0
  Ti  Ti1301  1  0.07381358  0.99978751  0.35575047  1.0
  Ti  Ti1302  1  0.15714691  0.16645417  0.35575047  1.0
  Ti  Ti1303  1  0.15714691  0.33312084  0.35575047  1.0
  Ti  Ti1304  1  0.15714691  0.49978751  0.35575047  1.0
  Ti  Ti1305  1  0.15714691  0.66645417  0.35575047  1.0
  Ti  Ti1306  1  0.15714691  0.83312084  0.35575047  1.0
  Ti  Ti1307  1  0.15714691  0.99978751  0.35575047  1.0
  Ti  Ti1308  1  0.24048024  0.16645417  0.35575047  1.0
  Ti  Ti1309  1  0.24048024  0.33312084  0.35575047  1.0
  Ti  Ti1310  1  0.24048024  0.49978751  0.35575047  1.0
  Ti  Ti1311  1  0.24048024  0.66645417  0.35575047  1.0
  Ti  Ti1312  1  0.24048024  0.83312084  0.35575047  1.0
  Ti  Ti1313  1  0.24048024  0.99978751  0.35575047  1.0
  Ti  Ti1314  1  0.32381358  0.16645417  0.35575047  1.0
  Ti  Ti1315  1  0.32381358  0.33312084  0.35575047  1.0
  Ti  Ti1316  1  0.32381358  0.49978751  0.35575047  1.0
  Ti  Ti1317  1  0.32381358  0.66645417  0.35575047  1.0
  Ti  Ti1318  1  0.32381358  0.83312084  0.35575047  1.0
  Ti  Ti1319  1  0.32381358  0.99978751  0.35575047  1.0
  Ti  Ti1320  1  0.40714691  0.16645417  0.35575047  1.0
  Ti  Ti1321  1  0.40714691  0.33312084  0.35575047  1.0
  Ti  Ti1322  1  0.40714691  0.49978751  0.35575047  1.0
  Ti  Ti1323  1  0.40714691  0.66645417  0.35575047  1.0
  Ti  Ti1324  1  0.40714691  0.83312084  0.35575047  1.0
  Ti  Ti1325  1  0.40714691  0.99978751  0.35575047  1.0
  Ti  Ti1326  1  0.49048024  0.16645417  0.35575047  1.0
  Ti  Ti1327  1  0.49048024  0.33312084  0.35575047  1.0
  Ti  Ti1328  1  0.49048024  0.49978751  0.35575047  1.0
  Ti  Ti1329  1  0.49048024  0.66645417  0.35575047  1.0
  Ti  Ti1330  1  0.49048024  0.83312084  0.35575047  1.0
  Ti  Ti1331  1  0.49048024  0.99978751  0.35575047  1.0
  Ti  Ti1332  1  0.57381358  0.16645417  0.35575047  1.0
  Ti  Ti1333  1  0.57381358  0.33312084  0.35575047  1.0
  Ti  Ti1334  1  0.57381358  0.49978751  0.35575047  1.0
  Ti  Ti1335  1  0.57381358  0.66645417  0.35575047  1.0
  Ti  Ti1336  1  0.57381358  0.83312084  0.35575047  1.0
  Ti  Ti1337  1  0.57381358  0.99978751  0.35575047  1.0
  Ti  Ti1338  1  0.65714691  0.16645417  0.35575047  1.0
  Ti  Ti1339  1  0.65714691  0.33312084  0.35575047  1.0
  Ti  Ti1340  1  0.65714691  0.49978751  0.35575047  1.0
  Ti  Ti1341  1  0.65714691  0.66645417  0.35575047  1.0
  Ti  Ti1342  1  0.65714691  0.83312084  0.35575047  1.0
  Ti  Ti1343  1  0.65714691  0.99978751  0.35575047  1.0
  Ti  Ti1344  1  0.74048024  0.16645417  0.35575047  1.0
  Ti  Ti1345  1  0.74048024  0.33312084  0.35575047  1.0
  Ti  Ti1346  1  0.74048024  0.49978751  0.35575047  1.0
  Ti  Ti1347  1  0.74048024  0.66645417  0.35575047  1.0
  Ti  Ti1348  1  0.74048024  0.83312084  0.35575047  1.0
  Ti  Ti1349  1  0.74048024  0.99978751  0.35575047  1.0
  Ti  Ti1350  1  0.82381358  0.16645417  0.35575047  1.0
  Ti  Ti1351  1  0.82381358  0.33312084  0.35575047  1.0
  Ti  Ti1352  1  0.82381358  0.49978751  0.35575047  1.0
  Ti  Ti1353  1  0.82381358  0.66645417  0.35575047  1.0
  Ti  Ti1354  1  0.82381358  0.83312084  0.35575047  1.0
  Ti  Ti1355  1  0.82381358  0.99978751  0.35575047  1.0
  Ti  Ti1356  1  0.90714691  0.16645417  0.35575047  1.0
  Ti  Ti1357  1  0.90714691  0.33312084  0.35575047  1.0
  Ti  Ti1358  1  0.90714691  0.49978751  0.35575047  1.0
  Ti  Ti1359  1  0.90714691  0.66645417  0.35575047  1.0
  Ti  Ti1360  1  0.90714691  0.83312084  0.35575047  1.0
  Ti  Ti1361  1  0.90714691  0.99978751  0.35575047  1.0
  Ti  Ti1362  1  0.99048024  0.16645417  0.35575047  1.0
  Ti  Ti1363  1  0.99048024  0.33312084  0.35575047  1.0
  Ti  Ti1364  1  0.99048024  0.49978751  0.35575047  1.0
  Ti  Ti1365  1  0.99048024  0.66645417  0.35575047  1.0
  Ti  Ti1366  1  0.99048024  0.83312084  0.35575047  1.0
  Ti  Ti1367  1  0.99048024  0.99978751  0.35575047  1.0
  Ti  Ti1368  1  0.01428977  0.01169227  0.28432190  1.0
  Ti  Ti1369  1  0.01428977  0.17835893  0.28432190  1.0
  Ti  Ti1370  1  0.01428977  0.34502560  0.28432190  1.0
  Ti  Ti1371  1  0.01428977  0.51169227  0.28432190  1.0
  Ti  Ti1372  1  0.01428977  0.67835893  0.28432190  1.0
  Ti  Ti1373  1  0.01428977  0.84502560  0.28432190  1.0
  Ti  Ti1374  1  0.09762310  0.01169227  0.28432190  1.0
  Ti  Ti1375  1  0.09762310  0.17835893  0.28432190  1.0
  Ti  Ti1376  1  0.09762310  0.34502560  0.28432190  1.0
  Ti  Ti1377  1  0.09762310  0.51169227  0.28432190  1.0
  Ti  Ti1378  1  0.09762310  0.67835893  0.28432190  1.0
  Ti  Ti1379  1  0.09762310  0.84502560  0.28432190  1.0
  Ti  Ti1380  1  0.18095643  0.01169227  0.28432190  1.0
  Ti  Ti1381  1  0.18095643  0.17835893  0.28432190  1.0
  Ti  Ti1382  1  0.18095643  0.34502560  0.28432190  1.0
  Ti  Ti1383  1  0.18095643  0.51169227  0.28432190  1.0
  Ti  Ti1384  1  0.18095643  0.67835893  0.28432190  1.0
  Ti  Ti1385  1  0.18095643  0.84502560  0.28432190  1.0
  Ti  Ti1386  1  0.26428977  0.01169227  0.28432190  1.0
  Ti  Ti1387  1  0.26428977  0.17835893  0.28432190  1.0
  Ti  Ti1388  1  0.26428977  0.34502560  0.28432190  1.0
  Ti  Ti1389  1  0.26428977  0.51169227  0.28432190  1.0
  Ti  Ti1390  1  0.26428977  0.67835893  0.28432190  1.0
  Ti  Ti1391  1  0.26428977  0.84502560  0.28432190  1.0
  Ti  Ti1392  1  0.34762310  0.01169227  0.28432190  1.0
  Ti  Ti1393  1  0.34762310  0.17835893  0.28432190  1.0
  Ti  Ti1394  1  0.34762310  0.34502560  0.28432190  1.0
  Ti  Ti1395  1  0.34762310  0.51169227  0.28432190  1.0
  Ti  Ti1396  1  0.34762310  0.67835893  0.28432190  1.0
  Ti  Ti1397  1  0.34762310  0.84502560  0.28432190  1.0
  Ti  Ti1398  1  0.43095643  0.01169227  0.28432190  1.0
  Ti  Ti1399  1  0.43095643  0.17835893  0.28432190  1.0
  Ti  Ti1400  1  0.43095643  0.34502560  0.28432190  1.0
  Ti  Ti1401  1  0.43095643  0.51169227  0.28432190  1.0
  Ti  Ti1402  1  0.43095643  0.67835893  0.28432190  1.0
  Ti  Ti1403  1  0.43095643  0.84502560  0.28432190  1.0
  Ti  Ti1404  1  0.51428977  0.01169227  0.28432190  1.0
  Ti  Ti1405  1  0.51428977  0.17835893  0.28432190  1.0
  Ti  Ti1406  1  0.51428977  0.34502560  0.28432190  1.0
  Ti  Ti1407  1  0.51428977  0.51169227  0.28432190  1.0
  Ti  Ti1408  1  0.51428977  0.67835893  0.28432190  1.0
  Ti  Ti1409  1  0.51428977  0.84502560  0.28432190  1.0
  Ti  Ti1410  1  0.59762310  0.01169227  0.28432190  1.0
  Ti  Ti1411  1  0.59762310  0.17835893  0.28432190  1.0
  Ti  Ti1412  1  0.59762310  0.34502560  0.28432190  1.0
  Ti  Ti1413  1  0.59762310  0.51169227  0.28432190  1.0
  Ti  Ti1414  1  0.59762310  0.67835893  0.28432190  1.0
  Ti  Ti1415  1  0.59762310  0.84502560  0.28432190  1.0
  Ti  Ti1416  1  0.68095643  0.01169227  0.28432190  1.0
  Ti  Ti1417  1  0.68095643  0.17835893  0.28432190  1.0
  Ti  Ti1418  1  0.68095643  0.34502560  0.28432190  1.0
  Ti  Ti1419  1  0.68095643  0.51169227  0.28432190  1.0
  Ti  Ti1420  1  0.68095643  0.67835893  0.28432190  1.0
  Ti  Ti1421  1  0.68095643  0.84502560  0.28432190  1.0
  Ti  Ti1422  1  0.76428977  0.01169227  0.28432190  1.0
  Ti  Ti1423  1  0.76428977  0.17835893  0.28432190  1.0
  Ti  Ti1424  1  0.76428977  0.34502560  0.28432190  1.0
  Ti  Ti1425  1  0.76428977  0.51169227  0.28432190  1.0
  Ti  Ti1426  1  0.76428977  0.67835893  0.28432190  1.0
  Ti  Ti1427  1  0.76428977  0.84502560  0.28432190  1.0
  Ti  Ti1428  1  0.84762310  0.01169227  0.28432190  1.0
  Ti  Ti1429  1  0.84762310  0.17835893  0.28432190  1.0
  Ti  Ti1430  1  0.84762310  0.34502560  0.28432190  1.0
  Ti  Ti1431  1  0.84762310  0.51169227  0.28432190  1.0
  Ti  Ti1432  1  0.84762310  0.67835893  0.28432190  1.0
  Ti  Ti1433  1  0.84762310  0.84502560  0.28432190  1.0
  Ti  Ti1434  1  0.93095643  0.01169227  0.28432190  1.0
  Ti  Ti1435  1  0.93095643  0.17835893  0.28432190  1.0
  Ti  Ti1436  1  0.93095643  0.34502560  0.28432190  1.0
  Ti  Ti1437  1  0.93095643  0.51169227  0.28432190  1.0
  Ti  Ti1438  1  0.93095643  0.67835893  0.28432190  1.0
  Ti  Ti1439  1  0.93095643  0.84502560  0.28432190  1.0
  Ti  Ti1440  1  0.03113896  0.11488938  0.23016691  1.0
  Ti  Ti1441  1  0.03113896  0.28155605  0.23016691  1.0
  Ti  Ti1442  1  0.03113896  0.44822271  0.23016691  1.0
  Ti  Ti1443  1  0.03113896  0.61488938  0.23016691  1.0
  Ti  Ti1444  1  0.03113896  0.78155605  0.23016691  1.0
  Ti  Ti1445  1  0.03113896  0.94822271  0.23016691  1.0
  Ti  Ti1446  1  0.11447230  0.11488938  0.23016691  1.0
  Ti  Ti1447  1  0.11447230  0.28155605  0.23016691  1.0
  Ti  Ti1448  1  0.11447230  0.44822271  0.23016691  1.0
  Ti  Ti1449  1  0.11447230  0.61488938  0.23016691  1.0
  Ti  Ti1450  1  0.11447230  0.78155605  0.23016691  1.0
  Ti  Ti1451  1  0.11447230  0.94822271  0.23016691  1.0
  Ti  Ti1452  1  0.19780563  0.11488938  0.23016691  1.0
  Ti  Ti1453  1  0.19780563  0.28155605  0.23016691  1.0
  Ti  Ti1454  1  0.19780563  0.44822271  0.23016691  1.0
  Ti  Ti1455  1  0.19780563  0.61488938  0.23016691  1.0
  Ti  Ti1456  1  0.19780563  0.78155605  0.23016691  1.0
  Ti  Ti1457  1  0.19780563  0.94822271  0.23016691  1.0
  Ti  Ti1458  1  0.28113896  0.11488938  0.23016691  1.0
  Ti  Ti1459  1  0.28113896  0.28155605  0.23016691  1.0
  Ti  Ti1460  1  0.28113896  0.44822271  0.23016691  1.0
  Ti  Ti1461  1  0.28113896  0.61488938  0.23016691  1.0
  Ti  Ti1462  1  0.28113896  0.78155605  0.23016691  1.0
  Ti  Ti1463  1  0.28113896  0.94822271  0.23016691  1.0
  Ti  Ti1464  1  0.36447230  0.11488938  0.23016691  1.0
  Ti  Ti1465  1  0.36447230  0.28155605  0.23016691  1.0
  Ti  Ti1466  1  0.36447230  0.44822271  0.23016691  1.0
  Ti  Ti1467  1  0.36447230  0.61488938  0.23016691  1.0
  Ti  Ti1468  1  0.36447230  0.78155605  0.23016691  1.0
  Ti  Ti1469  1  0.36447230  0.94822271  0.23016691  1.0
  Ti  Ti1470  1  0.44780563  0.11488938  0.23016691  1.0
  Ti  Ti1471  1  0.44780563  0.28155605  0.23016691  1.0
  Ti  Ti1472  1  0.44780563  0.44822271  0.23016691  1.0
  Ti  Ti1473  1  0.44780563  0.61488938  0.23016691  1.0
  Ti  Ti1474  1  0.44780563  0.78155605  0.23016691  1.0
  Ti  Ti1475  1  0.44780563  0.94822271  0.23016691  1.0
  Ti  Ti1476  1  0.53113896  0.11488938  0.23016691  1.0
  Ti  Ti1477  1  0.53113896  0.28155605  0.23016691  1.0
  Ti  Ti1478  1  0.53113896  0.44822271  0.23016691  1.0
  Ti  Ti1479  1  0.53113896  0.61488938  0.23016691  1.0
  Ti  Ti1480  1  0.53113896  0.78155605  0.23016691  1.0
  Ti  Ti1481  1  0.53113896  0.94822271  0.23016691  1.0
  Ti  Ti1482  1  0.61447230  0.11488938  0.23016691  1.0
  Ti  Ti1483  1  0.61447230  0.28155605  0.23016691  1.0
  Ti  Ti1484  1  0.61447230  0.44822271  0.23016691  1.0
  Ti  Ti1485  1  0.61447230  0.61488938  0.23016691  1.0
  Ti  Ti1486  1  0.61447230  0.78155605  0.23016691  1.0
  Ti  Ti1487  1  0.61447230  0.94822271  0.23016691  1.0
  Ti  Ti1488  1  0.69780563  0.11488938  0.23016691  1.0
  Ti  Ti1489  1  0.69780563  0.28155605  0.23016691  1.0
  Ti  Ti1490  1  0.69780563  0.44822271  0.23016691  1.0
  Ti  Ti1491  1  0.69780563  0.61488938  0.23016691  1.0
  Ti  Ti1492  1  0.69780563  0.78155605  0.23016691  1.0
  Ti  Ti1493  1  0.69780563  0.94822271  0.23016691  1.0
  Ti  Ti1494  1  0.78113896  0.11488938  0.23016691  1.0
  Ti  Ti1495  1  0.78113896  0.28155605  0.23016691  1.0
  Ti  Ti1496  1  0.78113896  0.44822271  0.23016691  1.0
  Ti  Ti1497  1  0.78113896  0.61488938  0.23016691  1.0
  Ti  Ti1498  1  0.78113896  0.78155605  0.23016691  1.0
  Ti  Ti1499  1  0.78113896  0.94822271  0.23016691  1.0
  Ti  Ti1500  1  0.86447230  0.11488938  0.23016691  1.0
  Ti  Ti1501  1  0.86447230  0.28155605  0.23016691  1.0
  Ti  Ti1502  1  0.86447230  0.44822271  0.23016691  1.0
  Ti  Ti1503  1  0.86447230  0.61488938  0.23016691  1.0
  Ti  Ti1504  1  0.86447230  0.78155605  0.23016691  1.0
  Ti  Ti1505  1  0.86447230  0.94822271  0.23016691  1.0
  Ti  Ti1506  1  0.94780563  0.11488938  0.23016691  1.0
  Ti  Ti1507  1  0.94780563  0.28155605  0.23016691  1.0
  Ti  Ti1508  1  0.94780563  0.44822271  0.23016691  1.0
  Ti  Ti1509  1  0.94780563  0.61488938  0.23016691  1.0
  Ti  Ti1510  1  0.94780563  0.78155605  0.23016691  1.0
  Ti  Ti1511  1  0.94780563  0.94822271  0.23016691  1.0
  Ti  Ti1512  1  0.00732944  0.10298462  0.30159548  1.0
  Ti  Ti1513  1  0.00732944  0.26965128  0.30159548  1.0
  Ti  Ti1514  1  0.00732944  0.43631795  0.30159548  1.0
  Ti  Ti1515  1  0.00732944  0.60298462  0.30159548  1.0
  Ti  Ti1516  1  0.00732944  0.76965128  0.30159548  1.0
  Ti  Ti1517  1  0.00732944  0.93631795  0.30159548  1.0
  Ti  Ti1518  1  0.09066277  0.10298462  0.30159548  1.0
  Ti  Ti1519  1  0.09066277  0.26965128  0.30159548  1.0
  Ti  Ti1520  1  0.09066277  0.43631795  0.30159548  1.0
  Ti  Ti1521  1  0.09066277  0.60298462  0.30159548  1.0
  Ti  Ti1522  1  0.09066277  0.76965128  0.30159548  1.0
  Ti  Ti1523  1  0.09066277  0.93631795  0.30159548  1.0
  Ti  Ti1524  1  0.17399611  0.10298462  0.30159548  1.0
  Ti  Ti1525  1  0.17399611  0.26965128  0.30159548  1.0
  Ti  Ti1526  1  0.17399611  0.43631795  0.30159548  1.0
  Ti  Ti1527  1  0.17399611  0.60298462  0.30159548  1.0
  Ti  Ti1528  1  0.17399611  0.76965128  0.30159548  1.0
  Ti  Ti1529  1  0.17399611  0.93631795  0.30159548  1.0
  Ti  Ti1530  1  0.25732944  0.10298462  0.30159548  1.0
  Ti  Ti1531  1  0.25732944  0.26965128  0.30159548  1.0
  Ti  Ti1532  1  0.25732944  0.43631795  0.30159548  1.0
  Ti  Ti1533  1  0.25732944  0.60298462  0.30159548  1.0
  Ti  Ti1534  1  0.25732944  0.76965128  0.30159548  1.0
  Ti  Ti1535  1  0.25732944  0.93631795  0.30159548  1.0
  Ti  Ti1536  1  0.34066277  0.10298462  0.30159548  1.0
  Ti  Ti1537  1  0.34066277  0.26965128  0.30159548  1.0
  Ti  Ti1538  1  0.34066277  0.43631795  0.30159548  1.0
  Ti  Ti1539  1  0.34066277  0.60298462  0.30159548  1.0
  Ti  Ti1540  1  0.34066277  0.76965128  0.30159548  1.0
  Ti  Ti1541  1  0.34066277  0.93631795  0.30159548  1.0
  Ti  Ti1542  1  0.42399611  0.10298462  0.30159548  1.0
  Ti  Ti1543  1  0.42399611  0.26965128  0.30159548  1.0
  Ti  Ti1544  1  0.42399611  0.43631795  0.30159548  1.0
  Ti  Ti1545  1  0.42399611  0.60298462  0.30159548  1.0
  Ti  Ti1546  1  0.42399611  0.76965128  0.30159548  1.0
  Ti  Ti1547  1  0.42399611  0.93631795  0.30159548  1.0
  Ti  Ti1548  1  0.50732944  0.10298462  0.30159548  1.0
  Ti  Ti1549  1  0.50732944  0.26965128  0.30159548  1.0
  Ti  Ti1550  1  0.50732944  0.43631795  0.30159548  1.0
  Ti  Ti1551  1  0.50732944  0.60298462  0.30159548  1.0
  Ti  Ti1552  1  0.50732944  0.76965128  0.30159548  1.0
  Ti  Ti1553  1  0.50732944  0.93631795  0.30159548  1.0
  Ti  Ti1554  1  0.59066277  0.10298462  0.30159548  1.0
  Ti  Ti1555  1  0.59066277  0.26965128  0.30159548  1.0
  Ti  Ti1556  1  0.59066277  0.43631795  0.30159548  1.0
  Ti  Ti1557  1  0.59066277  0.60298462  0.30159548  1.0
  Ti  Ti1558  1  0.59066277  0.76965128  0.30159548  1.0
  Ti  Ti1559  1  0.59066277  0.93631795  0.30159548  1.0
  Ti  Ti1560  1  0.67399611  0.10298462  0.30159548  1.0
  Ti  Ti1561  1  0.67399611  0.26965128  0.30159548  1.0
  Ti  Ti1562  1  0.67399611  0.43631795  0.30159548  1.0
  Ti  Ti1563  1  0.67399611  0.60298462  0.30159548  1.0
  Ti  Ti1564  1  0.67399611  0.76965128  0.30159548  1.0
  Ti  Ti1565  1  0.67399611  0.93631795  0.30159548  1.0
  Ti  Ti1566  1  0.75732944  0.10298462  0.30159548  1.0
  Ti  Ti1567  1  0.75732944  0.26965128  0.30159548  1.0
  Ti  Ti1568  1  0.75732944  0.43631795  0.30159548  1.0
  Ti  Ti1569  1  0.75732944  0.60298462  0.30159548  1.0
  Ti  Ti1570  1  0.75732944  0.76965128  0.30159548  1.0
  Ti  Ti1571  1  0.75732944  0.93631795  0.30159548  1.0
  Ti  Ti1572  1  0.84066277  0.10298462  0.30159548  1.0
  Ti  Ti1573  1  0.84066277  0.26965128  0.30159548  1.0
  Ti  Ti1574  1  0.84066277  0.43631795  0.30159548  1.0
  Ti  Ti1575  1  0.84066277  0.60298462  0.30159548  1.0
  Ti  Ti1576  1  0.84066277  0.76965128  0.30159548  1.0
  Ti  Ti1577  1  0.84066277  0.93631795  0.30159548  1.0
  Ti  Ti1578  1  0.92399611  0.10298462  0.30159548  1.0
  Ti  Ti1579  1  0.92399611  0.26965128  0.30159548  1.0
  Ti  Ti1580  1  0.92399611  0.43631795  0.30159548  1.0
  Ti  Ti1581  1  0.92399611  0.60298462  0.30159548  1.0
  Ti  Ti1582  1  0.92399611  0.76965128  0.30159548  1.0
  Ti  Ti1583  1  0.92399611  0.93631795  0.30159548  1.0
  Ti  Ti1584  1  0.01352261  0.08699953  0.41147974  1.0
  Ti  Ti1585  1  0.01352261  0.25366620  0.41147974  1.0
  Ti  Ti1586  1  0.01352261  0.42033287  0.41147974  1.0
  Ti  Ti1587  1  0.01352261  0.58699953  0.41147974  1.0
  Ti  Ti1588  1  0.01352261  0.75366620  0.41147974  1.0
  Ti  Ti1589  1  0.01352261  0.92033287  0.41147974  1.0
  Ti  Ti1590  1  0.09685594  0.08699953  0.41147974  1.0
  Ti  Ti1591  1  0.09685594  0.25366620  0.41147974  1.0
  Ti  Ti1592  1  0.09685594  0.42033287  0.41147974  1.0
  Ti  Ti1593  1  0.09685594  0.58699953  0.41147974  1.0
  Ti  Ti1594  1  0.09685594  0.75366620  0.41147974  1.0
  Ti  Ti1595  1  0.09685594  0.92033287  0.41147974  1.0
  Ti  Ti1596  1  0.18018927  0.08699953  0.41147974  1.0
  Ti  Ti1597  1  0.18018927  0.25366620  0.41147974  1.0
  Ti  Ti1598  1  0.18018927  0.42033287  0.41147974  1.0
  Ti  Ti1599  1  0.18018927  0.58699953  0.41147974  1.0
  Ti  Ti1600  1  0.18018927  0.75366620  0.41147974  1.0
  Ti  Ti1601  1  0.18018927  0.92033287  0.41147974  1.0
  Ti  Ti1602  1  0.26352261  0.08699953  0.41147974  1.0
  Ti  Ti1603  1  0.26352261  0.25366620  0.41147974  1.0
  Ti  Ti1604  1  0.26352261  0.42033287  0.41147974  1.0
  Ti  Ti1605  1  0.26352261  0.58699953  0.41147974  1.0
  Ti  Ti1606  1  0.26352261  0.75366620  0.41147974  1.0
  Ti  Ti1607  1  0.26352261  0.92033287  0.41147974  1.0
  Ti  Ti1608  1  0.34685594  0.08699953  0.41147974  1.0
  Ti  Ti1609  1  0.34685594  0.25366620  0.41147974  1.0
  Ti  Ti1610  1  0.34685594  0.42033287  0.41147974  1.0
  Ti  Ti1611  1  0.34685594  0.58699953  0.41147974  1.0
  Ti  Ti1612  1  0.34685594  0.75366620  0.41147974  1.0
  Ti  Ti1613  1  0.34685594  0.92033287  0.41147974  1.0
  Ti  Ti1614  1  0.43018927  0.08699953  0.41147974  1.0
  Ti  Ti1615  1  0.43018927  0.25366620  0.41147974  1.0
  Ti  Ti1616  1  0.43018927  0.42033287  0.41147974  1.0
  Ti  Ti1617  1  0.43018927  0.58699953  0.41147974  1.0
  Ti  Ti1618  1  0.43018927  0.75366620  0.41147974  1.0
  Ti  Ti1619  1  0.43018927  0.92033287  0.41147974  1.0
  Ti  Ti1620  1  0.51352261  0.08699953  0.41147974  1.0
  Ti  Ti1621  1  0.51352261  0.25366620  0.41147974  1.0
  Ti  Ti1622  1  0.51352261  0.42033287  0.41147974  1.0
  Ti  Ti1623  1  0.51352261  0.58699953  0.41147974  1.0
  Ti  Ti1624  1  0.51352261  0.75366620  0.41147974  1.0
  Ti  Ti1625  1  0.51352261  0.92033287  0.41147974  1.0
  Ti  Ti1626  1  0.59685594  0.08699953  0.41147974  1.0
  Ti  Ti1627  1  0.59685594  0.25366620  0.41147974  1.0
  Ti  Ti1628  1  0.59685594  0.42033287  0.41147974  1.0
  Ti  Ti1629  1  0.59685594  0.58699953  0.41147974  1.0
  Ti  Ti1630  1  0.59685594  0.75366620  0.41147974  1.0
  Ti  Ti1631  1  0.59685594  0.92033287  0.41147974  1.0
  Ti  Ti1632  1  0.68018927  0.08699953  0.41147974  1.0
  Ti  Ti1633  1  0.68018927  0.25366620  0.41147974  1.0
  Ti  Ti1634  1  0.68018927  0.42033287  0.41147974  1.0
  Ti  Ti1635  1  0.68018927  0.58699953  0.41147974  1.0
  Ti  Ti1636  1  0.68018927  0.75366620  0.41147974  1.0
  Ti  Ti1637  1  0.68018927  0.92033287  0.41147974  1.0
  Ti  Ti1638  1  0.76352261  0.08699953  0.41147974  1.0
  Ti  Ti1639  1  0.76352261  0.25366620  0.41147974  1.0
  Ti  Ti1640  1  0.76352261  0.42033287  0.41147974  1.0
  Ti  Ti1641  1  0.76352261  0.58699953  0.41147974  1.0
  Ti  Ti1642  1  0.76352261  0.75366620  0.41147974  1.0
  Ti  Ti1643  1  0.76352261  0.92033287  0.41147974  1.0
  Ti  Ti1644  1  0.84685594  0.08699953  0.41147974  1.0
  Ti  Ti1645  1  0.84685594  0.25366620  0.41147974  1.0
  Ti  Ti1646  1  0.84685594  0.42033287  0.41147974  1.0
  Ti  Ti1647  1  0.84685594  0.58699953  0.41147974  1.0
  Ti  Ti1648  1  0.84685594  0.75366620  0.41147974  1.0
  Ti  Ti1649  1  0.84685594  0.92033287  0.41147974  1.0
  Ti  Ti1650  1  0.93018927  0.08699953  0.41147974  1.0
  Ti  Ti1651  1  0.93018927  0.25366620  0.41147974  1.0
  Ti  Ti1652  1  0.93018927  0.42033287  0.41147974  1.0
  Ti  Ti1653  1  0.93018927  0.58699953  0.41147974  1.0
  Ti  Ti1654  1  0.93018927  0.75366620  0.41147974  1.0
  Ti  Ti1655  1  0.93018927  0.92033287  0.41147974  1.0
  Ti  Ti1656  1  0.07304642  0.07509477  0.48290831  1.0
  Ti  Ti1657  1  0.07304642  0.24176144  0.48290831  1.0
  Ti  Ti1658  1  0.07304642  0.40842811  0.48290831  1.0
  Ti  Ti1659  1  0.07304642  0.57509477  0.48290831  1.0
  Ti  Ti1660  1  0.07304642  0.74176144  0.48290831  1.0
  Ti  Ti1661  1  0.07304642  0.90842811  0.48290831  1.0
  Ti  Ti1662  1  0.15637975  0.07509477  0.48290831  1.0
  Ti  Ti1663  1  0.15637975  0.24176144  0.48290831  1.0
  Ti  Ti1664  1  0.15637975  0.40842811  0.48290831  1.0
  Ti  Ti1665  1  0.15637975  0.57509477  0.48290831  1.0
  Ti  Ti1666  1  0.15637975  0.74176144  0.48290831  1.0
  Ti  Ti1667  1  0.15637975  0.90842811  0.48290831  1.0
  Ti  Ti1668  1  0.23971308  0.07509477  0.48290831  1.0
  Ti  Ti1669  1  0.23971308  0.24176144  0.48290831  1.0
  Ti  Ti1670  1  0.23971308  0.40842811  0.48290831  1.0
  Ti  Ti1671  1  0.23971308  0.57509477  0.48290831  1.0
  Ti  Ti1672  1  0.23971308  0.74176144  0.48290831  1.0
  Ti  Ti1673  1  0.23971308  0.90842811  0.48290831  1.0
  Ti  Ti1674  1  0.32304642  0.07509477  0.48290831  1.0
  Ti  Ti1675  1  0.32304642  0.24176144  0.48290831  1.0
  Ti  Ti1676  1  0.32304642  0.40842811  0.48290831  1.0
  Ti  Ti1677  1  0.32304642  0.57509477  0.48290831  1.0
  Ti  Ti1678  1  0.32304642  0.74176144  0.48290831  1.0
  Ti  Ti1679  1  0.32304642  0.90842811  0.48290831  1.0
  Ti  Ti1680  1  0.40637975  0.07509477  0.48290831  1.0
  Ti  Ti1681  1  0.40637975  0.24176144  0.48290831  1.0
  Ti  Ti1682  1  0.40637975  0.40842811  0.48290831  1.0
  Ti  Ti1683  1  0.40637975  0.57509477  0.48290831  1.0
  Ti  Ti1684  1  0.40637975  0.74176144  0.48290831  1.0
  Ti  Ti1685  1  0.40637975  0.90842811  0.48290831  1.0
  Ti  Ti1686  1  0.48971308  0.07509477  0.48290831  1.0
  Ti  Ti1687  1  0.48971308  0.24176144  0.48290831  1.0
  Ti  Ti1688  1  0.48971308  0.40842811  0.48290831  1.0
  Ti  Ti1689  1  0.48971308  0.57509477  0.48290831  1.0
  Ti  Ti1690  1  0.48971308  0.74176144  0.48290831  1.0
  Ti  Ti1691  1  0.48971308  0.90842811  0.48290831  1.0
  Ti  Ti1692  1  0.57304642  0.07509477  0.48290831  1.0
  Ti  Ti1693  1  0.57304642  0.24176144  0.48290831  1.0
  Ti  Ti1694  1  0.57304642  0.40842811  0.48290831  1.0
  Ti  Ti1695  1  0.57304642  0.57509477  0.48290831  1.0
  Ti  Ti1696  1  0.57304642  0.74176144  0.48290831  1.0
  Ti  Ti1697  1  0.57304642  0.90842811  0.48290831  1.0
  Ti  Ti1698  1  0.65637975  0.07509477  0.48290831  1.0
  Ti  Ti1699  1  0.65637975  0.24176144  0.48290831  1.0
  Ti  Ti1700  1  0.65637975  0.40842811  0.48290831  1.0
  Ti  Ti1701  1  0.65637975  0.57509477  0.48290831  1.0
  Ti  Ti1702  1  0.65637975  0.74176144  0.48290831  1.0
  Ti  Ti1703  1  0.65637975  0.90842811  0.48290831  1.0
  Ti  Ti1704  1  0.73971308  0.07509477  0.48290831  1.0
  Ti  Ti1705  1  0.73971308  0.24176144  0.48290831  1.0
  Ti  Ti1706  1  0.73971308  0.40842811  0.48290831  1.0
  Ti  Ti1707  1  0.73971308  0.57509477  0.48290831  1.0
  Ti  Ti1708  1  0.73971308  0.74176144  0.48290831  1.0
  Ti  Ti1709  1  0.73971308  0.90842811  0.48290831  1.0
  Ti  Ti1710  1  0.82304642  0.07509477  0.48290831  1.0
  Ti  Ti1711  1  0.82304642  0.24176144  0.48290831  1.0
  Ti  Ti1712  1  0.82304642  0.40842811  0.48290831  1.0
  Ti  Ti1713  1  0.82304642  0.57509477  0.48290831  1.0
  Ti  Ti1714  1  0.82304642  0.74176144  0.48290831  1.0
  Ti  Ti1715  1  0.82304642  0.90842811  0.48290831  1.0
  Ti  Ti1716  1  0.90637975  0.07509477  0.48290831  1.0
  Ti  Ti1717  1  0.90637975  0.24176144  0.48290831  1.0
  Ti  Ti1718  1  0.90637975  0.40842811  0.48290831  1.0
  Ti  Ti1719  1  0.90637975  0.57509477  0.48290831  1.0
  Ti  Ti1720  1  0.90637975  0.74176144  0.48290831  1.0
  Ti  Ti1721  1  0.90637975  0.90842811  0.48290831  1.0
  Ti  Ti1722  1  0.98971308  0.07509477  0.48290831  1.0
  Ti  Ti1723  1  0.98971308  0.24176144  0.48290831  1.0
  Ti  Ti1724  1  0.98971308  0.40842811  0.48290831  1.0
  Ti  Ti1725  1  0.98971308  0.57509477  0.48290831  1.0
  Ti  Ti1726  1  0.98971308  0.74176144  0.48290831  1.0
  Ti  Ti1727  1  0.98971308  0.90842811  0.48290831  1.0
  Ti  Ti1728  1  0.01877225  0.16094706  0.38993468  1.0
  Ti  Ti1729  1  0.01877225  0.32761373  0.38993468  1.0
  Ti  Ti1730  1  0.01877225  0.49428040  0.38993468  1.0
  Ti  Ti1731  1  0.01877225  0.66094706  0.38993468  1.0
  Ti  Ti1732  1  0.01877225  0.82761373  0.38993468  1.0
  Ti  Ti1733  1  0.01877225  0.99428040  0.38993468  1.0
  Ti  Ti1734  1  0.10210558  0.16094706  0.38993468  1.0
  Ti  Ti1735  1  0.10210558  0.32761373  0.38993468  1.0
  Ti  Ti1736  1  0.10210558  0.49428040  0.38993468  1.0
  Ti  Ti1737  1  0.10210558  0.66094706  0.38993468  1.0
  Ti  Ti1738  1  0.10210558  0.82761373  0.38993468  1.0
  Ti  Ti1739  1  0.10210558  0.99428040  0.38993468  1.0
  Ti  Ti1740  1  0.18543892  0.16094706  0.38993468  1.0
  Ti  Ti1741  1  0.18543892  0.32761373  0.38993468  1.0
  Ti  Ti1742  1  0.18543892  0.49428040  0.38993468  1.0
  Ti  Ti1743  1  0.18543892  0.66094706  0.38993468  1.0
  Ti  Ti1744  1  0.18543892  0.82761373  0.38993468  1.0
  Ti  Ti1745  1  0.18543892  0.99428040  0.38993468  1.0
  Ti  Ti1746  1  0.26877225  0.16094706  0.38993468  1.0
  Ti  Ti1747  1  0.26877225  0.32761373  0.38993468  1.0
  Ti  Ti1748  1  0.26877225  0.49428040  0.38993468  1.0
  Ti  Ti1749  1  0.26877225  0.66094706  0.38993468  1.0
  Ti  Ti1750  1  0.26877225  0.82761373  0.38993468  1.0
  Ti  Ti1751  1  0.26877225  0.99428040  0.38993468  1.0
  Ti  Ti1752  1  0.35210558  0.16094706  0.38993468  1.0
  Ti  Ti1753  1  0.35210558  0.32761373  0.38993468  1.0
  Ti  Ti1754  1  0.35210558  0.49428040  0.38993468  1.0
  Ti  Ti1755  1  0.35210558  0.66094706  0.38993468  1.0
  Ti  Ti1756  1  0.35210558  0.82761373  0.38993468  1.0
  Ti  Ti1757  1  0.35210558  0.99428040  0.38993468  1.0
  Ti  Ti1758  1  0.43543892  0.16094706  0.38993468  1.0
  Ti  Ti1759  1  0.43543892  0.32761373  0.38993468  1.0
  Ti  Ti1760  1  0.43543892  0.49428040  0.38993468  1.0
  Ti  Ti1761  1  0.43543892  0.66094706  0.38993468  1.0
  Ti  Ti1762  1  0.43543892  0.82761373  0.38993468  1.0
  Ti  Ti1763  1  0.43543892  0.99428040  0.38993468  1.0
  Ti  Ti1764  1  0.51877225  0.16094706  0.38993468  1.0
  Ti  Ti1765  1  0.51877225  0.32761373  0.38993468  1.0
  Ti  Ti1766  1  0.51877225  0.49428040  0.38993468  1.0
  Ti  Ti1767  1  0.51877225  0.66094706  0.38993468  1.0
  Ti  Ti1768  1  0.51877225  0.82761373  0.38993468  1.0
  Ti  Ti1769  1  0.51877225  0.99428040  0.38993468  1.0
  Ti  Ti1770  1  0.60210558  0.16094706  0.38993468  1.0
  Ti  Ti1771  1  0.60210558  0.32761373  0.38993468  1.0
  Ti  Ti1772  1  0.60210558  0.49428040  0.38993468  1.0
  Ti  Ti1773  1  0.60210558  0.66094706  0.38993468  1.0
  Ti  Ti1774  1  0.60210558  0.82761373  0.38993468  1.0
  Ti  Ti1775  1  0.60210558  0.99428040  0.38993468  1.0
  Ti  Ti1776  1  0.68543892  0.16094706  0.38993468  1.0
  Ti  Ti1777  1  0.68543892  0.32761373  0.38993468  1.0
  Ti  Ti1778  1  0.68543892  0.49428040  0.38993468  1.0
  Ti  Ti1779  1  0.68543892  0.66094706  0.38993468  1.0
  Ti  Ti1780  1  0.68543892  0.82761373  0.38993468  1.0
  Ti  Ti1781  1  0.68543892  0.99428040  0.38993468  1.0
  Ti  Ti1782  1  0.76877225  0.16094706  0.38993468  1.0
  Ti  Ti1783  1  0.76877225  0.32761373  0.38993468  1.0
  Ti  Ti1784  1  0.76877225  0.49428040  0.38993468  1.0
  Ti  Ti1785  1  0.76877225  0.66094706  0.38993468  1.0
  Ti  Ti1786  1  0.76877225  0.82761373  0.38993468  1.0
  Ti  Ti1787  1  0.76877225  0.99428040  0.38993468  1.0
  Ti  Ti1788  1  0.85210558  0.16094706  0.38993468  1.0
  Ti  Ti1789  1  0.85210558  0.32761373  0.38993468  1.0
  Ti  Ti1790  1  0.85210558  0.49428040  0.38993468  1.0
  Ti  Ti1791  1  0.85210558  0.66094706  0.38993468  1.0
  Ti  Ti1792  1  0.85210558  0.82761373  0.38993468  1.0
  Ti  Ti1793  1  0.85210558  0.99428040  0.38993468  1.0
  Ti  Ti1794  1  0.93543892  0.16094706  0.38993468  1.0
  Ti  Ti1795  1  0.93543892  0.32761373  0.38993468  1.0
  Ti  Ti1796  1  0.93543892  0.49428040  0.38993468  1.0
  Ti  Ti1797  1  0.93543892  0.66094706  0.38993468  1.0
  Ti  Ti1798  1  0.93543892  0.82761373  0.38993468  1.0
  Ti  Ti1799  1  0.93543892  0.99428040  0.38993468  1.0
  Ti  Ti1800  1  0.07829606  0.14904230  0.46136325  1.0
  Ti  Ti1801  1  0.07829606  0.31570897  0.46136325  1.0
  Ti  Ti1802  1  0.07829606  0.48237563  0.46136325  1.0
  Ti  Ti1803  1  0.07829606  0.64904230  0.46136325  1.0
  Ti  Ti1804  1  0.07829606  0.81570897  0.46136325  1.0
  Ti  Ti1805  1  0.07829606  0.98237563  0.46136325  1.0
  Ti  Ti1806  1  0.16162939  0.14904230  0.46136325  1.0
  Ti  Ti1807  1  0.16162939  0.31570897  0.46136325  1.0
  Ti  Ti1808  1  0.16162939  0.48237563  0.46136325  1.0
  Ti  Ti1809  1  0.16162939  0.64904230  0.46136325  1.0
  Ti  Ti1810  1  0.16162939  0.81570897  0.46136325  1.0
  Ti  Ti1811  1  0.16162939  0.98237563  0.46136325  1.0
  Ti  Ti1812  1  0.24496273  0.14904230  0.46136325  1.0
  Ti  Ti1813  1  0.24496273  0.31570897  0.46136325  1.0
  Ti  Ti1814  1  0.24496273  0.48237563  0.46136325  1.0
  Ti  Ti1815  1  0.24496273  0.64904230  0.46136325  1.0
  Ti  Ti1816  1  0.24496273  0.81570897  0.46136325  1.0
  Ti  Ti1817  1  0.24496273  0.98237563  0.46136325  1.0
  Ti  Ti1818  1  0.32829606  0.14904230  0.46136325  1.0
  Ti  Ti1819  1  0.32829606  0.31570897  0.46136325  1.0
  Ti  Ti1820  1  0.32829606  0.48237563  0.46136325  1.0
  Ti  Ti1821  1  0.32829606  0.64904230  0.46136325  1.0
  Ti  Ti1822  1  0.32829606  0.81570897  0.46136325  1.0
  Ti  Ti1823  1  0.32829606  0.98237563  0.46136325  1.0
  Ti  Ti1824  1  0.41162939  0.14904230  0.46136325  1.0
  Ti  Ti1825  1  0.41162939  0.31570897  0.46136325  1.0
  Ti  Ti1826  1  0.41162939  0.48237563  0.46136325  1.0
  Ti  Ti1827  1  0.41162939  0.64904230  0.46136325  1.0
  Ti  Ti1828  1  0.41162939  0.81570897  0.46136325  1.0
  Ti  Ti1829  1  0.41162939  0.98237563  0.46136325  1.0
  Ti  Ti1830  1  0.49496273  0.14904230  0.46136325  1.0
  Ti  Ti1831  1  0.49496273  0.31570897  0.46136325  1.0
  Ti  Ti1832  1  0.49496273  0.48237563  0.46136325  1.0
  Ti  Ti1833  1  0.49496273  0.64904230  0.46136325  1.0
  Ti  Ti1834  1  0.49496273  0.81570897  0.46136325  1.0
  Ti  Ti1835  1  0.49496273  0.98237563  0.46136325  1.0
  Ti  Ti1836  1  0.57829606  0.14904230  0.46136325  1.0
  Ti  Ti1837  1  0.57829606  0.31570897  0.46136325  1.0
  Ti  Ti1838  1  0.57829606  0.48237563  0.46136325  1.0
  Ti  Ti1839  1  0.57829606  0.64904230  0.46136325  1.0
  Ti  Ti1840  1  0.57829606  0.81570897  0.46136325  1.0
  Ti  Ti1841  1  0.57829606  0.98237563  0.46136325  1.0
  Ti  Ti1842  1  0.66162939  0.14904230  0.46136325  1.0
  Ti  Ti1843  1  0.66162939  0.31570897  0.46136325  1.0
  Ti  Ti1844  1  0.66162939  0.48237563  0.46136325  1.0
  Ti  Ti1845  1  0.66162939  0.64904230  0.46136325  1.0
  Ti  Ti1846  1  0.66162939  0.81570897  0.46136325  1.0
  Ti  Ti1847  1  0.66162939  0.98237563  0.46136325  1.0
  Ti  Ti1848  1  0.74496273  0.14904230  0.46136325  1.0
  Ti  Ti1849  1  0.74496273  0.31570897  0.46136325  1.0
  Ti  Ti1850  1  0.74496273  0.48237563  0.46136325  1.0
  Ti  Ti1851  1  0.74496273  0.64904230  0.46136325  1.0
  Ti  Ti1852  1  0.74496273  0.81570897  0.46136325  1.0
  Ti  Ti1853  1  0.74496273  0.98237563  0.46136325  1.0
  Ti  Ti1854  1  0.82829606  0.14904230  0.46136325  1.0
  Ti  Ti1855  1  0.82829606  0.31570897  0.46136325  1.0
  Ti  Ti1856  1  0.82829606  0.48237563  0.46136325  1.0
  Ti  Ti1857  1  0.82829606  0.64904230  0.46136325  1.0
  Ti  Ti1858  1  0.82829606  0.81570897  0.46136325  1.0
  Ti  Ti1859  1  0.82829606  0.98237563  0.46136325  1.0
  Ti  Ti1860  1  0.91162939  0.14904230  0.46136325  1.0
  Ti  Ti1861  1  0.91162939  0.31570897  0.46136325  1.0
  Ti  Ti1862  1  0.91162939  0.48237563  0.46136325  1.0
  Ti  Ti1863  1  0.91162939  0.64904230  0.46136325  1.0
  Ti  Ti1864  1  0.91162939  0.81570897  0.46136325  1.0
  Ti  Ti1865  1  0.91162939  0.98237563  0.46136325  1.0
  Ti  Ti1866  1  0.99496273  0.14904230  0.46136325  1.0
  Ti  Ti1867  1  0.99496273  0.31570897  0.46136325  1.0
  Ti  Ti1868  1  0.99496273  0.48237563  0.46136325  1.0
  Ti  Ti1869  1  0.99496273  0.64904230  0.46136325  1.0
  Ti  Ti1870  1  0.99496273  0.81570897  0.46136325  1.0
  Ti  Ti1871  1  0.99496273  0.98237563  0.46136325  1.0
  Ti  Ti1872  1  0.01796446  0.04075366  0.40033290  1.0
  Ti  Ti1873  1  0.01796446  0.20742033  0.40033290  1.0
  Ti  Ti1874  1  0.01796446  0.37408699  0.40033290  1.0
  Ti  Ti1875  1  0.01796446  0.54075366  0.40033290  1.0
  Ti  Ti1876  1  0.01796446  0.70742033  0.40033290  1.0
  Ti  Ti1877  1  0.01796446  0.87408699  0.40033290  1.0
  Ti  Ti1878  1  0.10129779  0.04075366  0.40033290  1.0
  Ti  Ti1879  1  0.10129779  0.20742033  0.40033290  1.0
  Ti  Ti1880  1  0.10129779  0.37408699  0.40033290  1.0
  Ti  Ti1881  1  0.10129779  0.54075366  0.40033290  1.0
  Ti  Ti1882  1  0.10129779  0.70742033  0.40033290  1.0
  Ti  Ti1883  1  0.10129779  0.87408699  0.40033290  1.0
  Ti  Ti1884  1  0.18463113  0.04075366  0.40033290  1.0
  Ti  Ti1885  1  0.18463113  0.20742033  0.40033290  1.0
  Ti  Ti1886  1  0.18463113  0.37408699  0.40033290  1.0
  Ti  Ti1887  1  0.18463113  0.54075366  0.40033290  1.0
  Ti  Ti1888  1  0.18463113  0.70742033  0.40033290  1.0
  Ti  Ti1889  1  0.18463113  0.87408699  0.40033290  1.0
  Ti  Ti1890  1  0.26796446  0.04075366  0.40033290  1.0
  Ti  Ti1891  1  0.26796446  0.20742033  0.40033290  1.0
  Ti  Ti1892  1  0.26796446  0.37408699  0.40033290  1.0
  Ti  Ti1893  1  0.26796446  0.54075366  0.40033290  1.0
  Ti  Ti1894  1  0.26796446  0.70742033  0.40033290  1.0
  Ti  Ti1895  1  0.26796446  0.87408699  0.40033290  1.0
  Ti  Ti1896  1  0.35129779  0.04075366  0.40033290  1.0
  Ti  Ti1897  1  0.35129779  0.20742033  0.40033290  1.0
  Ti  Ti1898  1  0.35129779  0.37408699  0.40033290  1.0
  Ti  Ti1899  1  0.35129779  0.54075366  0.40033290  1.0
  Ti  Ti1900  1  0.35129779  0.70742033  0.40033290  1.0
  Ti  Ti1901  1  0.35129779  0.87408699  0.40033290  1.0
  Ti  Ti1902  1  0.43463113  0.04075366  0.40033290  1.0
  Ti  Ti1903  1  0.43463113  0.20742033  0.40033290  1.0
  Ti  Ti1904  1  0.43463113  0.37408699  0.40033290  1.0
  Ti  Ti1905  1  0.43463113  0.54075366  0.40033290  1.0
  Ti  Ti1906  1  0.43463113  0.70742033  0.40033290  1.0
  Ti  Ti1907  1  0.43463113  0.87408699  0.40033290  1.0
  Ti  Ti1908  1  0.51796446  0.04075366  0.40033290  1.0
  Ti  Ti1909  1  0.51796446  0.20742033  0.40033290  1.0
  Ti  Ti1910  1  0.51796446  0.37408699  0.40033290  1.0
  Ti  Ti1911  1  0.51796446  0.54075366  0.40033290  1.0
  Ti  Ti1912  1  0.51796446  0.70742033  0.40033290  1.0
  Ti  Ti1913  1  0.51796446  0.87408699  0.40033290  1.0
  Ti  Ti1914  1  0.60129779  0.04075366  0.40033290  1.0
  Ti  Ti1915  1  0.60129779  0.20742033  0.40033290  1.0
  Ti  Ti1916  1  0.60129779  0.37408699  0.40033290  1.0
  Ti  Ti1917  1  0.60129779  0.54075366  0.40033290  1.0
  Ti  Ti1918  1  0.60129779  0.70742033  0.40033290  1.0
  Ti  Ti1919  1  0.60129779  0.87408699  0.40033290  1.0
  Ti  Ti1920  1  0.68463113  0.04075366  0.40033290  1.0
  Ti  Ti1921  1  0.68463113  0.20742033  0.40033290  1.0
  Ti  Ti1922  1  0.68463113  0.37408699  0.40033290  1.0
  Ti  Ti1923  1  0.68463113  0.54075366  0.40033290  1.0
  Ti  Ti1924  1  0.68463113  0.70742033  0.40033290  1.0
  Ti  Ti1925  1  0.68463113  0.87408699  0.40033290  1.0
  Ti  Ti1926  1  0.76796446  0.04075366  0.40033290  1.0
  Ti  Ti1927  1  0.76796446  0.20742033  0.40033290  1.0
  Ti  Ti1928  1  0.76796446  0.37408699  0.40033290  1.0
  Ti  Ti1929  1  0.76796446  0.54075366  0.40033290  1.0
  Ti  Ti1930  1  0.76796446  0.70742033  0.40033290  1.0
  Ti  Ti1931  1  0.76796446  0.87408699  0.40033290  1.0
  Ti  Ti1932  1  0.85129779  0.04075366  0.40033290  1.0
  Ti  Ti1933  1  0.85129779  0.20742033  0.40033290  1.0
  Ti  Ti1934  1  0.85129779  0.37408699  0.40033290  1.0
  Ti  Ti1935  1  0.85129779  0.54075366  0.40033290  1.0
  Ti  Ti1936  1  0.85129779  0.70742033  0.40033290  1.0
  Ti  Ti1937  1  0.85129779  0.87408699  0.40033290  1.0
  Ti  Ti1938  1  0.93463113  0.04075366  0.40033290  1.0
  Ti  Ti1939  1  0.93463113  0.20742033  0.40033290  1.0
  Ti  Ti1940  1  0.93463113  0.37408699  0.40033290  1.0
  Ti  Ti1941  1  0.93463113  0.54075366  0.40033290  1.0
  Ti  Ti1942  1  0.93463113  0.70742033  0.40033290  1.0
  Ti  Ti1943  1  0.93463113  0.87408699  0.40033290  1.0
  Ti  Ti1944  1  0.07748827  0.02884890  0.47176147  1.0
  Ti  Ti1945  1  0.07748827  0.19551556  0.47176147  1.0
  Ti  Ti1946  1  0.07748827  0.36218223  0.47176147  1.0
  Ti  Ti1947  1  0.07748827  0.52884890  0.47176147  1.0
  Ti  Ti1948  1  0.07748827  0.69551556  0.47176147  1.0
  Ti  Ti1949  1  0.07748827  0.86218223  0.47176147  1.0
  Ti  Ti1950  1  0.16082160  0.02884890  0.47176147  1.0
  Ti  Ti1951  1  0.16082160  0.19551556  0.47176147  1.0
  Ti  Ti1952  1  0.16082160  0.36218223  0.47176147  1.0
  Ti  Ti1953  1  0.16082160  0.52884890  0.47176147  1.0
  Ti  Ti1954  1  0.16082160  0.69551556  0.47176147  1.0
  Ti  Ti1955  1  0.16082160  0.86218223  0.47176147  1.0
  Ti  Ti1956  1  0.24415494  0.02884890  0.47176147  1.0
  Ti  Ti1957  1  0.24415494  0.19551556  0.47176147  1.0
  Ti  Ti1958  1  0.24415494  0.36218223  0.47176147  1.0
  Ti  Ti1959  1  0.24415494  0.52884890  0.47176147  1.0
  Ti  Ti1960  1  0.24415494  0.69551556  0.47176147  1.0
  Ti  Ti1961  1  0.24415494  0.86218223  0.47176147  1.0
  Ti  Ti1962  1  0.32748827  0.02884890  0.47176147  1.0
  Ti  Ti1963  1  0.32748827  0.19551556  0.47176147  1.0
  Ti  Ti1964  1  0.32748827  0.36218223  0.47176147  1.0
  Ti  Ti1965  1  0.32748827  0.52884890  0.47176147  1.0
  Ti  Ti1966  1  0.32748827  0.69551556  0.47176147  1.0
  Ti  Ti1967  1  0.32748827  0.86218223  0.47176147  1.0
  Ti  Ti1968  1  0.41082160  0.02884890  0.47176147  1.0
  Ti  Ti1969  1  0.41082160  0.19551556  0.47176147  1.0
  Ti  Ti1970  1  0.41082160  0.36218223  0.47176147  1.0
  Ti  Ti1971  1  0.41082160  0.52884890  0.47176147  1.0
  Ti  Ti1972  1  0.41082160  0.69551556  0.47176147  1.0
  Ti  Ti1973  1  0.41082160  0.86218223  0.47176147  1.0
  Ti  Ti1974  1  0.49415494  0.02884890  0.47176147  1.0
  Ti  Ti1975  1  0.49415494  0.19551556  0.47176147  1.0
  Ti  Ti1976  1  0.49415494  0.36218223  0.47176147  1.0
  Ti  Ti1977  1  0.49415494  0.52884890  0.47176147  1.0
  Ti  Ti1978  1  0.49415494  0.69551556  0.47176147  1.0
  Ti  Ti1979  1  0.49415494  0.86218223  0.47176147  1.0
  Ti  Ti1980  1  0.57748827  0.02884890  0.47176147  1.0
  Ti  Ti1981  1  0.57748827  0.19551556  0.47176147  1.0
  Ti  Ti1982  1  0.57748827  0.36218223  0.47176147  1.0
  Ti  Ti1983  1  0.57748827  0.52884890  0.47176147  1.0
  Ti  Ti1984  1  0.57748827  0.69551556  0.47176147  1.0
  Ti  Ti1985  1  0.57748827  0.86218223  0.47176147  1.0
  Ti  Ti1986  1  0.66082160  0.02884890  0.47176147  1.0
  Ti  Ti1987  1  0.66082160  0.19551556  0.47176147  1.0
  Ti  Ti1988  1  0.66082160  0.36218223  0.47176147  1.0
  Ti  Ti1989  1  0.66082160  0.52884890  0.47176147  1.0
  Ti  Ti1990  1  0.66082160  0.69551556  0.47176147  1.0
  Ti  Ti1991  1  0.66082160  0.86218223  0.47176147  1.0
  Ti  Ti1992  1  0.74415494  0.02884890  0.47176147  1.0
  Ti  Ti1993  1  0.74415494  0.19551556  0.47176147  1.0
  Ti  Ti1994  1  0.74415494  0.36218223  0.47176147  1.0
  Ti  Ti1995  1  0.74415494  0.52884890  0.47176147  1.0
  Ti  Ti1996  1  0.74415494  0.69551556  0.47176147  1.0
  Ti  Ti1997  1  0.74415494  0.86218223  0.47176147  1.0
  Ti  Ti1998  1  0.82748827  0.02884890  0.47176147  1.0
  Ti  Ti1999  1  0.82748827  0.19551556  0.47176147  1.0
  Ti  Ti2000  1  0.82748827  0.36218223  0.47176147  1.0
  Ti  Ti2001  1  0.82748827  0.52884890  0.47176147  1.0
  Ti  Ti2002  1  0.82748827  0.69551556  0.47176147  1.0
  Ti  Ti2003  1  0.82748827  0.86218223  0.47176147  1.0
  Ti  Ti2004  1  0.91082160  0.02884890  0.47176147  1.0
  Ti  Ti2005  1  0.91082160  0.19551556  0.47176147  1.0
  Ti  Ti2006  1  0.91082160  0.36218223  0.47176147  1.0
  Ti  Ti2007  1  0.91082160  0.52884890  0.47176147  1.0
  Ti  Ti2008  1  0.91082160  0.69551556  0.47176147  1.0
  Ti  Ti2009  1  0.91082160  0.86218223  0.47176147  1.0
  Ti  Ti2010  1  0.99415494  0.02884890  0.47176147  1.0
  Ti  Ti2011  1  0.99415494  0.19551556  0.47176147  1.0
  Ti  Ti2012  1  0.99415494  0.36218223  0.47176147  1.0
  Ti  Ti2013  1  0.99415494  0.52884890  0.47176147  1.0
  Ti  Ti2014  1  0.99415494  0.69551556  0.47176147  1.0
  Ti  Ti2015  1  0.99415494  0.86218223  0.47176147  1.0
  Ti  Ti2016  1  0.06477397  0.14112096  0.38433570  1.0
  Ti  Ti2017  1  0.06477397  0.30778762  0.38433570  1.0
  Ti  Ti2018  1  0.06477397  0.47445429  0.38433570  1.0
  Ti  Ti2019  1  0.06477397  0.64112096  0.38433570  1.0
  Ti  Ti2020  1  0.06477397  0.80778762  0.38433570  1.0
  Ti  Ti2021  1  0.06477397  0.97445429  0.38433570  1.0
  Ti  Ti2022  1  0.14810731  0.14112096  0.38433570  1.0
  Ti  Ti2023  1  0.14810731  0.30778762  0.38433570  1.0
  Ti  Ti2024  1  0.14810731  0.47445429  0.38433570  1.0
  Ti  Ti2025  1  0.14810731  0.64112096  0.38433570  1.0
  Ti  Ti2026  1  0.14810731  0.80778762  0.38433570  1.0
  Ti  Ti2027  1  0.14810731  0.97445429  0.38433570  1.0
  Ti  Ti2028  1  0.23144064  0.14112096  0.38433570  1.0
  Ti  Ti2029  1  0.23144064  0.30778762  0.38433570  1.0
  Ti  Ti2030  1  0.23144064  0.47445429  0.38433570  1.0
  Ti  Ti2031  1  0.23144064  0.64112096  0.38433570  1.0
  Ti  Ti2032  1  0.23144064  0.80778762  0.38433570  1.0
  Ti  Ti2033  1  0.23144064  0.97445429  0.38433570  1.0
  Ti  Ti2034  1  0.31477397  0.14112096  0.38433570  1.0
  Ti  Ti2035  1  0.31477397  0.30778762  0.38433570  1.0
  Ti  Ti2036  1  0.31477397  0.47445429  0.38433570  1.0
  Ti  Ti2037  1  0.31477397  0.64112096  0.38433570  1.0
  Ti  Ti2038  1  0.31477397  0.80778762  0.38433570  1.0
  Ti  Ti2039  1  0.31477397  0.97445429  0.38433570  1.0
  Ti  Ti2040  1  0.39810731  0.14112096  0.38433570  1.0
  Ti  Ti2041  1  0.39810731  0.30778762  0.38433570  1.0
  Ti  Ti2042  1  0.39810731  0.47445429  0.38433570  1.0
  Ti  Ti2043  1  0.39810731  0.64112096  0.38433570  1.0
  Ti  Ti2044  1  0.39810731  0.80778762  0.38433570  1.0
  Ti  Ti2045  1  0.39810731  0.97445429  0.38433570  1.0
  Ti  Ti2046  1  0.48144064  0.14112096  0.38433570  1.0
  Ti  Ti2047  1  0.48144064  0.30778762  0.38433570  1.0
  Ti  Ti2048  1  0.48144064  0.47445429  0.38433570  1.0
  Ti  Ti2049  1  0.48144064  0.64112096  0.38433570  1.0
  Ti  Ti2050  1  0.48144064  0.80778762  0.38433570  1.0
  Ti  Ti2051  1  0.48144064  0.97445429  0.38433570  1.0
  Ti  Ti2052  1  0.56477397  0.14112096  0.38433570  1.0
  Ti  Ti2053  1  0.56477397  0.30778762  0.38433570  1.0
  Ti  Ti2054  1  0.56477397  0.47445429  0.38433570  1.0
  Ti  Ti2055  1  0.56477397  0.64112096  0.38433570  1.0
  Ti  Ti2056  1  0.56477397  0.80778762  0.38433570  1.0
  Ti  Ti2057  1  0.56477397  0.97445429  0.38433570  1.0
  Ti  Ti2058  1  0.64810731  0.14112096  0.38433570  1.0
  Ti  Ti2059  1  0.64810731  0.30778762  0.38433570  1.0
  Ti  Ti2060  1  0.64810731  0.47445429  0.38433570  1.0
  Ti  Ti2061  1  0.64810731  0.64112096  0.38433570  1.0
  Ti  Ti2062  1  0.64810731  0.80778762  0.38433570  1.0
  Ti  Ti2063  1  0.64810731  0.97445429  0.38433570  1.0
  Ti  Ti2064  1  0.73144064  0.14112096  0.38433570  1.0
  Ti  Ti2065  1  0.73144064  0.30778762  0.38433570  1.0
  Ti  Ti2066  1  0.73144064  0.47445429  0.38433570  1.0
  Ti  Ti2067  1  0.73144064  0.64112096  0.38433570  1.0
  Ti  Ti2068  1  0.73144064  0.80778762  0.38433570  1.0
  Ti  Ti2069  1  0.73144064  0.97445429  0.38433570  1.0
  Ti  Ti2070  1  0.81477397  0.14112096  0.38433570  1.0
  Ti  Ti2071  1  0.81477397  0.30778762  0.38433570  1.0
  Ti  Ti2072  1  0.81477397  0.47445429  0.38433570  1.0
  Ti  Ti2073  1  0.81477397  0.64112096  0.38433570  1.0
  Ti  Ti2074  1  0.81477397  0.80778762  0.38433570  1.0
  Ti  Ti2075  1  0.81477397  0.97445429  0.38433570  1.0
  Ti  Ti2076  1  0.89810731  0.14112096  0.38433570  1.0
  Ti  Ti2077  1  0.89810731  0.30778762  0.38433570  1.0
  Ti  Ti2078  1  0.89810731  0.47445429  0.38433570  1.0
  Ti  Ti2079  1  0.89810731  0.64112096  0.38433570  1.0
  Ti  Ti2080  1  0.89810731  0.80778762  0.38433570  1.0
  Ti  Ti2081  1  0.89810731  0.97445429  0.38433570  1.0
  Ti  Ti2082  1  0.98144064  0.14112096  0.38433570  1.0
  Ti  Ti2083  1  0.98144064  0.30778762  0.38433570  1.0
  Ti  Ti2084  1  0.98144064  0.47445429  0.38433570  1.0
  Ti  Ti2085  1  0.98144064  0.64112096  0.38433570  1.0
  Ti  Ti2086  1  0.98144064  0.80778762  0.38433570  1.0
  Ti  Ti2087  1  0.98144064  0.97445429  0.38433570  1.0
  Ti  Ti2088  1  0.04096445  0.12921620  0.45576427  1.0
  Ti  Ti2089  1  0.04096445  0.29588286  0.45576427  1.0
  Ti  Ti2090  1  0.04096445  0.46254953  0.45576427  1.0
  Ti  Ti2091  1  0.04096445  0.62921620  0.45576427  1.0
  Ti  Ti2092  1  0.04096445  0.79588286  0.45576427  1.0
  Ti  Ti2093  1  0.04096445  0.96254953  0.45576427  1.0
  Ti  Ti2094  1  0.12429778  0.12921620  0.45576427  1.0
  Ti  Ti2095  1  0.12429778  0.29588286  0.45576427  1.0
  Ti  Ti2096  1  0.12429778  0.46254953  0.45576427  1.0
  Ti  Ti2097  1  0.12429778  0.62921620  0.45576427  1.0
  Ti  Ti2098  1  0.12429778  0.79588286  0.45576427  1.0
  Ti  Ti2099  1  0.12429778  0.96254953  0.45576427  1.0
  Ti  Ti2100  1  0.20763112  0.12921620  0.45576427  1.0
  Ti  Ti2101  1  0.20763112  0.29588286  0.45576427  1.0
  Ti  Ti2102  1  0.20763112  0.46254953  0.45576427  1.0
  Ti  Ti2103  1  0.20763112  0.62921620  0.45576427  1.0
  Ti  Ti2104  1  0.20763112  0.79588286  0.45576427  1.0
  Ti  Ti2105  1  0.20763112  0.96254953  0.45576427  1.0
  Ti  Ti2106  1  0.29096445  0.12921620  0.45576427  1.0
  Ti  Ti2107  1  0.29096445  0.29588286  0.45576427  1.0
  Ti  Ti2108  1  0.29096445  0.46254953  0.45576427  1.0
  Ti  Ti2109  1  0.29096445  0.62921620  0.45576427  1.0
  Ti  Ti2110  1  0.29096445  0.79588286  0.45576427  1.0
  Ti  Ti2111  1  0.29096445  0.96254953  0.45576427  1.0
  Ti  Ti2112  1  0.37429778  0.12921620  0.45576427  1.0
  Ti  Ti2113  1  0.37429778  0.29588286  0.45576427  1.0
  Ti  Ti2114  1  0.37429778  0.46254953  0.45576427  1.0
  Ti  Ti2115  1  0.37429778  0.62921620  0.45576427  1.0
  Ti  Ti2116  1  0.37429778  0.79588286  0.45576427  1.0
  Ti  Ti2117  1  0.37429778  0.96254953  0.45576427  1.0
  Ti  Ti2118  1  0.45763112  0.12921620  0.45576427  1.0
  Ti  Ti2119  1  0.45763112  0.29588286  0.45576427  1.0
  Ti  Ti2120  1  0.45763112  0.46254953  0.45576427  1.0
  Ti  Ti2121  1  0.45763112  0.62921620  0.45576427  1.0
  Ti  Ti2122  1  0.45763112  0.79588286  0.45576427  1.0
  Ti  Ti2123  1  0.45763112  0.96254953  0.45576427  1.0
  Ti  Ti2124  1  0.54096445  0.12921620  0.45576427  1.0
  Ti  Ti2125  1  0.54096445  0.29588286  0.45576427  1.0
  Ti  Ti2126  1  0.54096445  0.46254953  0.45576427  1.0
  Ti  Ti2127  1  0.54096445  0.62921620  0.45576427  1.0
  Ti  Ti2128  1  0.54096445  0.79588286  0.45576427  1.0
  Ti  Ti2129  1  0.54096445  0.96254953  0.45576427  1.0
  Ti  Ti2130  1  0.62429778  0.12921620  0.45576427  1.0
  Ti  Ti2131  1  0.62429778  0.29588286  0.45576427  1.0
  Ti  Ti2132  1  0.62429778  0.46254953  0.45576427  1.0
  Ti  Ti2133  1  0.62429778  0.62921620  0.45576427  1.0
  Ti  Ti2134  1  0.62429778  0.79588286  0.45576427  1.0
  Ti  Ti2135  1  0.62429778  0.96254953  0.45576427  1.0
  Ti  Ti2136  1  0.70763112  0.12921620  0.45576427  1.0
  Ti  Ti2137  1  0.70763112  0.29588286  0.45576427  1.0
  Ti  Ti2138  1  0.70763112  0.46254953  0.45576427  1.0
  Ti  Ti2139  1  0.70763112  0.62921620  0.45576427  1.0
  Ti  Ti2140  1  0.70763112  0.79588286  0.45576427  1.0
  Ti  Ti2141  1  0.70763112  0.96254953  0.45576427  1.0
  Ti  Ti2142  1  0.79096445  0.12921620  0.45576427  1.0
  Ti  Ti2143  1  0.79096445  0.29588286  0.45576427  1.0
  Ti  Ti2144  1  0.79096445  0.46254953  0.45576427  1.0
  Ti  Ti2145  1  0.79096445  0.62921620  0.45576427  1.0
  Ti  Ti2146  1  0.79096445  0.79588286  0.45576427  1.0
  Ti  Ti2147  1  0.79096445  0.96254953  0.45576427  1.0
  Ti  Ti2148  1  0.87429778  0.12921620  0.45576427  1.0
  Ti  Ti2149  1  0.87429778  0.29588286  0.45576427  1.0
  Ti  Ti2150  1  0.87429778  0.46254953  0.45576427  1.0
  Ti  Ti2151  1  0.87429778  0.62921620  0.45576427  1.0
  Ti  Ti2152  1  0.87429778  0.79588286  0.45576427  1.0
  Ti  Ti2153  1  0.87429778  0.96254953  0.45576427  1.0
  Ti  Ti2154  1  0.95763112  0.12921620  0.45576427  1.0
  Ti  Ti2155  1  0.95763112  0.29588286  0.45576427  1.0
  Ti  Ti2156  1  0.95763112  0.46254953  0.45576427  1.0
  Ti  Ti2157  1  0.95763112  0.62921620  0.45576427  1.0
  Ti  Ti2158  1  0.95763112  0.79588286  0.45576427  1.0
  Ti  Ti2159  1  0.95763112  0.96254953  0.45576427  1.0
  Ti  Ti2160  1  0.05318851  0.11059625  0.41720755  1.0
  Ti  Ti2161  1  0.05318851  0.27726292  0.41720755  1.0
  Ti  Ti2162  1  0.05318851  0.44392958  0.41720755  1.0
  Ti  Ti2163  1  0.05318851  0.61059625  0.41720755  1.0
  Ti  Ti2164  1  0.05318851  0.77726292  0.41720755  1.0
  Ti  Ti2165  1  0.05318851  0.94392958  0.41720755  1.0
  Ti  Ti2166  1  0.13652184  0.11059625  0.41720755  1.0
  Ti  Ti2167  1  0.13652184  0.27726292  0.41720755  1.0
  Ti  Ti2168  1  0.13652184  0.44392958  0.41720755  1.0
  Ti  Ti2169  1  0.13652184  0.61059625  0.41720755  1.0
  Ti  Ti2170  1  0.13652184  0.77726292  0.41720755  1.0
  Ti  Ti2171  1  0.13652184  0.94392958  0.41720755  1.0
  Ti  Ti2172  1  0.21985517  0.11059625  0.41720755  1.0
  Ti  Ti2173  1  0.21985517  0.27726292  0.41720755  1.0
  Ti  Ti2174  1  0.21985517  0.44392958  0.41720755  1.0
  Ti  Ti2175  1  0.21985517  0.61059625  0.41720755  1.0
  Ti  Ti2176  1  0.21985517  0.77726292  0.41720755  1.0
  Ti  Ti2177  1  0.21985517  0.94392958  0.41720755  1.0
  Ti  Ti2178  1  0.30318851  0.11059625  0.41720755  1.0
  Ti  Ti2179  1  0.30318851  0.27726292  0.41720755  1.0
  Ti  Ti2180  1  0.30318851  0.44392958  0.41720755  1.0
  Ti  Ti2181  1  0.30318851  0.61059625  0.41720755  1.0
  Ti  Ti2182  1  0.30318851  0.77726292  0.41720755  1.0
  Ti  Ti2183  1  0.30318851  0.94392958  0.41720755  1.0
  Ti  Ti2184  1  0.38652184  0.11059625  0.41720755  1.0
  Ti  Ti2185  1  0.38652184  0.27726292  0.41720755  1.0
  Ti  Ti2186  1  0.38652184  0.44392958  0.41720755  1.0
  Ti  Ti2187  1  0.38652184  0.61059625  0.41720755  1.0
  Ti  Ti2188  1  0.38652184  0.77726292  0.41720755  1.0
  Ti  Ti2189  1  0.38652184  0.94392958  0.41720755  1.0
  Ti  Ti2190  1  0.46985517  0.11059625  0.41720755  1.0
  Ti  Ti2191  1  0.46985517  0.27726292  0.41720755  1.0
  Ti  Ti2192  1  0.46985517  0.44392958  0.41720755  1.0
  Ti  Ti2193  1  0.46985517  0.61059625  0.41720755  1.0
  Ti  Ti2194  1  0.46985517  0.77726292  0.41720755  1.0
  Ti  Ti2195  1  0.46985517  0.94392958  0.41720755  1.0
  Ti  Ti2196  1  0.55318851  0.11059625  0.41720755  1.0
  Ti  Ti2197  1  0.55318851  0.27726292  0.41720755  1.0
  Ti  Ti2198  1  0.55318851  0.44392958  0.41720755  1.0
  Ti  Ti2199  1  0.55318851  0.61059625  0.41720755  1.0
  Ti  Ti2200  1  0.55318851  0.77726292  0.41720755  1.0
  Ti  Ti2201  1  0.55318851  0.94392958  0.41720755  1.0
  Ti  Ti2202  1  0.63652184  0.11059625  0.41720755  1.0
  Ti  Ti2203  1  0.63652184  0.27726292  0.41720755  1.0
  Ti  Ti2204  1  0.63652184  0.44392958  0.41720755  1.0
  Ti  Ti2205  1  0.63652184  0.61059625  0.41720755  1.0
  Ti  Ti2206  1  0.63652184  0.77726292  0.41720755  1.0
  Ti  Ti2207  1  0.63652184  0.94392958  0.41720755  1.0
  Ti  Ti2208  1  0.71985517  0.11059625  0.41720755  1.0
  Ti  Ti2209  1  0.71985517  0.27726292  0.41720755  1.0
  Ti  Ti2210  1  0.71985517  0.44392958  0.41720755  1.0
  Ti  Ti2211  1  0.71985517  0.61059625  0.41720755  1.0
  Ti  Ti2212  1  0.71985517  0.77726292  0.41720755  1.0
  Ti  Ti2213  1  0.71985517  0.94392958  0.41720755  1.0
  Ti  Ti2214  1  0.80318851  0.11059625  0.41720755  1.0
  Ti  Ti2215  1  0.80318851  0.27726292  0.41720755  1.0
  Ti  Ti2216  1  0.80318851  0.44392958  0.41720755  1.0
  Ti  Ti2217  1  0.80318851  0.61059625  0.41720755  1.0
  Ti  Ti2218  1  0.80318851  0.77726292  0.41720755  1.0
  Ti  Ti2219  1  0.80318851  0.94392958  0.41720755  1.0
  Ti  Ti2220  1  0.88652184  0.11059625  0.41720755  1.0
  Ti  Ti2221  1  0.88652184  0.27726292  0.41720755  1.0
  Ti  Ti2222  1  0.88652184  0.44392958  0.41720755  1.0
  Ti  Ti2223  1  0.88652184  0.61059625  0.41720755  1.0
  Ti  Ti2224  1  0.88652184  0.77726292  0.41720755  1.0
  Ti  Ti2225  1  0.88652184  0.94392958  0.41720755  1.0
  Ti  Ti2226  1  0.96985517  0.11059625  0.41720755  1.0
  Ti  Ti2227  1  0.96985517  0.27726292  0.41720755  1.0
  Ti  Ti2228  1  0.96985517  0.44392958  0.41720755  1.0
  Ti  Ti2229  1  0.96985517  0.61059625  0.41720755  1.0
  Ti  Ti2230  1  0.96985517  0.77726292  0.41720755  1.0
  Ti  Ti2231  1  0.96985517  0.94392958  0.41720755  1.0
  Ti  Ti2232  1  0.02937898  0.09869149  0.48863612  1.0
  Ti  Ti2233  1  0.02937898  0.26535816  0.48863612  1.0
  Ti  Ti2234  1  0.02937898  0.43202482  0.48863612  1.0
  Ti  Ti2235  1  0.02937898  0.59869149  0.48863612  1.0
  Ti  Ti2236  1  0.02937898  0.76535816  0.48863612  1.0
  Ti  Ti2237  1  0.02937898  0.93202482  0.48863612  1.0
  Ti  Ti2238  1  0.11271232  0.09869149  0.48863612  1.0
  Ti  Ti2239  1  0.11271232  0.26535816  0.48863612  1.0
  Ti  Ti2240  1  0.11271232  0.43202482  0.48863612  1.0
  Ti  Ti2241  1  0.11271232  0.59869149  0.48863612  1.0
  Ti  Ti2242  1  0.11271232  0.76535816  0.48863612  1.0
  Ti  Ti2243  1  0.11271232  0.93202482  0.48863612  1.0
  Ti  Ti2244  1  0.19604565  0.09869149  0.48863612  1.0
  Ti  Ti2245  1  0.19604565  0.26535816  0.48863612  1.0
  Ti  Ti2246  1  0.19604565  0.43202482  0.48863612  1.0
  Ti  Ti2247  1  0.19604565  0.59869149  0.48863612  1.0
  Ti  Ti2248  1  0.19604565  0.76535816  0.48863612  1.0
  Ti  Ti2249  1  0.19604565  0.93202482  0.48863612  1.0
  Ti  Ti2250  1  0.27937898  0.09869149  0.48863612  1.0
  Ti  Ti2251  1  0.27937898  0.26535816  0.48863612  1.0
  Ti  Ti2252  1  0.27937898  0.43202482  0.48863612  1.0
  Ti  Ti2253  1  0.27937898  0.59869149  0.48863612  1.0
  Ti  Ti2254  1  0.27937898  0.76535816  0.48863612  1.0
  Ti  Ti2255  1  0.27937898  0.93202482  0.48863612  1.0
  Ti  Ti2256  1  0.36271232  0.09869149  0.48863612  1.0
  Ti  Ti2257  1  0.36271232  0.26535816  0.48863612  1.0
  Ti  Ti2258  1  0.36271232  0.43202482  0.48863612  1.0
  Ti  Ti2259  1  0.36271232  0.59869149  0.48863612  1.0
  Ti  Ti2260  1  0.36271232  0.76535816  0.48863612  1.0
  Ti  Ti2261  1  0.36271232  0.93202482  0.48863612  1.0
  Ti  Ti2262  1  0.44604565  0.09869149  0.48863612  1.0
  Ti  Ti2263  1  0.44604565  0.26535816  0.48863612  1.0
  Ti  Ti2264  1  0.44604565  0.43202482  0.48863612  1.0
  Ti  Ti2265  1  0.44604565  0.59869149  0.48863612  1.0
  Ti  Ti2266  1  0.44604565  0.76535816  0.48863612  1.0
  Ti  Ti2267  1  0.44604565  0.93202482  0.48863612  1.0
  Ti  Ti2268  1  0.52937898  0.09869149  0.48863612  1.0
  Ti  Ti2269  1  0.52937898  0.26535816  0.48863612  1.0
  Ti  Ti2270  1  0.52937898  0.43202482  0.48863612  1.0
  Ti  Ti2271  1  0.52937898  0.59869149  0.48863612  1.0
  Ti  Ti2272  1  0.52937898  0.76535816  0.48863612  1.0
  Ti  Ti2273  1  0.52937898  0.93202482  0.48863612  1.0
  Ti  Ti2274  1  0.61271232  0.09869149  0.48863612  1.0
  Ti  Ti2275  1  0.61271232  0.26535816  0.48863612  1.0
  Ti  Ti2276  1  0.61271232  0.43202482  0.48863612  1.0
  Ti  Ti2277  1  0.61271232  0.59869149  0.48863612  1.0
  Ti  Ti2278  1  0.61271232  0.76535816  0.48863612  1.0
  Ti  Ti2279  1  0.61271232  0.93202482  0.48863612  1.0
  Ti  Ti2280  1  0.69604565  0.09869149  0.48863612  1.0
  Ti  Ti2281  1  0.69604565  0.26535816  0.48863612  1.0
  Ti  Ti2282  1  0.69604565  0.43202482  0.48863612  1.0
  Ti  Ti2283  1  0.69604565  0.59869149  0.48863612  1.0
  Ti  Ti2284  1  0.69604565  0.76535816  0.48863612  1.0
  Ti  Ti2285  1  0.69604565  0.93202482  0.48863612  1.0
  Ti  Ti2286  1  0.77937898  0.09869149  0.48863612  1.0
  Ti  Ti2287  1  0.77937898  0.26535816  0.48863612  1.0
  Ti  Ti2288  1  0.77937898  0.43202482  0.48863612  1.0
  Ti  Ti2289  1  0.77937898  0.59869149  0.48863612  1.0
  Ti  Ti2290  1  0.77937898  0.76535816  0.48863612  1.0
  Ti  Ti2291  1  0.77937898  0.93202482  0.48863612  1.0
  Ti  Ti2292  1  0.86271232  0.09869149  0.48863612  1.0
  Ti  Ti2293  1  0.86271232  0.26535816  0.48863612  1.0
  Ti  Ti2294  1  0.86271232  0.43202482  0.48863612  1.0
  Ti  Ti2295  1  0.86271232  0.59869149  0.48863612  1.0
  Ti  Ti2296  1  0.86271232  0.76535816  0.48863612  1.0
  Ti  Ti2297  1  0.86271232  0.93202482  0.48863612  1.0
  Ti  Ti2298  1  0.94604565  0.09869149  0.48863612  1.0
  Ti  Ti2299  1  0.94604565  0.26535816  0.48863612  1.0
  Ti  Ti2300  1  0.94604565  0.43202482  0.48863612  1.0
  Ti  Ti2301  1  0.94604565  0.59869149  0.48863612  1.0
  Ti  Ti2302  1  0.94604565  0.76535816  0.48863612  1.0
  Ti  Ti2303  1  0.94604565  0.93202482  0.48863612  1.0
  Ti  Ti2304  1  0.05528004  0.06057847  0.40595113  1.0
  Ti  Ti2305  1  0.05528004  0.22724513  0.40595113  1.0
  Ti  Ti2306  1  0.05528004  0.39391180  0.40595113  1.0
  Ti  Ti2307  1  0.05528004  0.56057847  0.40595113  1.0
  Ti  Ti2308  1  0.05528004  0.72724513  0.40595113  1.0
  Ti  Ti2309  1  0.05528004  0.89391180  0.40595113  1.0
  Ti  Ti2310  1  0.13861338  0.06057847  0.40595113  1.0
  Ti  Ti2311  1  0.13861338  0.22724513  0.40595113  1.0
  Ti  Ti2312  1  0.13861338  0.39391180  0.40595113  1.0
  Ti  Ti2313  1  0.13861338  0.56057847  0.40595113  1.0
  Ti  Ti2314  1  0.13861338  0.72724513  0.40595113  1.0
  Ti  Ti2315  1  0.13861338  0.89391180  0.40595113  1.0
  Ti  Ti2316  1  0.22194671  0.06057847  0.40595113  1.0
  Ti  Ti2317  1  0.22194671  0.22724513  0.40595113  1.0
  Ti  Ti2318  1  0.22194671  0.39391180  0.40595113  1.0
  Ti  Ti2319  1  0.22194671  0.56057847  0.40595113  1.0
  Ti  Ti2320  1  0.22194671  0.72724513  0.40595113  1.0
  Ti  Ti2321  1  0.22194671  0.89391180  0.40595113  1.0
  Ti  Ti2322  1  0.30528004  0.06057847  0.40595113  1.0
  Ti  Ti2323  1  0.30528004  0.22724513  0.40595113  1.0
  Ti  Ti2324  1  0.30528004  0.39391180  0.40595113  1.0
  Ti  Ti2325  1  0.30528004  0.56057847  0.40595113  1.0
  Ti  Ti2326  1  0.30528004  0.72724513  0.40595113  1.0
  Ti  Ti2327  1  0.30528004  0.89391180  0.40595113  1.0
  Ti  Ti2328  1  0.38861338  0.06057847  0.40595113  1.0
  Ti  Ti2329  1  0.38861338  0.22724513  0.40595113  1.0
  Ti  Ti2330  1  0.38861338  0.39391180  0.40595113  1.0
  Ti  Ti2331  1  0.38861338  0.56057847  0.40595113  1.0
  Ti  Ti2332  1  0.38861338  0.72724513  0.40595113  1.0
  Ti  Ti2333  1  0.38861338  0.89391180  0.40595113  1.0
  Ti  Ti2334  1  0.47194671  0.06057847  0.40595113  1.0
  Ti  Ti2335  1  0.47194671  0.22724513  0.40595113  1.0
  Ti  Ti2336  1  0.47194671  0.39391180  0.40595113  1.0
  Ti  Ti2337  1  0.47194671  0.56057847  0.40595113  1.0
  Ti  Ti2338  1  0.47194671  0.72724513  0.40595113  1.0
  Ti  Ti2339  1  0.47194671  0.89391180  0.40595113  1.0
  Ti  Ti2340  1  0.55528004  0.06057847  0.40595113  1.0
  Ti  Ti2341  1  0.55528004  0.22724513  0.40595113  1.0
  Ti  Ti2342  1  0.55528004  0.39391180  0.40595113  1.0
  Ti  Ti2343  1  0.55528004  0.56057847  0.40595113  1.0
  Ti  Ti2344  1  0.55528004  0.72724513  0.40595113  1.0
  Ti  Ti2345  1  0.55528004  0.89391180  0.40595113  1.0
  Ti  Ti2346  1  0.63861338  0.06057847  0.40595113  1.0
  Ti  Ti2347  1  0.63861338  0.22724513  0.40595113  1.0
  Ti  Ti2348  1  0.63861338  0.39391180  0.40595113  1.0
  Ti  Ti2349  1  0.63861338  0.56057847  0.40595113  1.0
  Ti  Ti2350  1  0.63861338  0.72724513  0.40595113  1.0
  Ti  Ti2351  1  0.63861338  0.89391180  0.40595113  1.0
  Ti  Ti2352  1  0.72194671  0.06057847  0.40595113  1.0
  Ti  Ti2353  1  0.72194671  0.22724513  0.40595113  1.0
  Ti  Ti2354  1  0.72194671  0.39391180  0.40595113  1.0
  Ti  Ti2355  1  0.72194671  0.56057847  0.40595113  1.0
  Ti  Ti2356  1  0.72194671  0.72724513  0.40595113  1.0
  Ti  Ti2357  1  0.72194671  0.89391180  0.40595113  1.0
  Ti  Ti2358  1  0.80528004  0.06057847  0.40595113  1.0
  Ti  Ti2359  1  0.80528004  0.22724513  0.40595113  1.0
  Ti  Ti2360  1  0.80528004  0.39391180  0.40595113  1.0
  Ti  Ti2361  1  0.80528004  0.56057847  0.40595113  1.0
  Ti  Ti2362  1  0.80528004  0.72724513  0.40595113  1.0
  Ti  Ti2363  1  0.80528004  0.89391180  0.40595113  1.0
  Ti  Ti2364  1  0.88861338  0.06057847  0.40595113  1.0
  Ti  Ti2365  1  0.88861338  0.22724513  0.40595113  1.0
  Ti  Ti2366  1  0.88861338  0.39391180  0.40595113  1.0
  Ti  Ti2367  1  0.88861338  0.56057847  0.40595113  1.0
  Ti  Ti2368  1  0.88861338  0.72724513  0.40595113  1.0
  Ti  Ti2369  1  0.88861338  0.89391180  0.40595113  1.0
  Ti  Ti2370  1  0.97194671  0.06057847  0.40595113  1.0
  Ti  Ti2371  1  0.97194671  0.22724513  0.40595113  1.0
  Ti  Ti2372  1  0.97194671  0.39391180  0.40595113  1.0
  Ti  Ti2373  1  0.97194671  0.56057847  0.40595113  1.0
  Ti  Ti2374  1  0.97194671  0.72724513  0.40595113  1.0
  Ti  Ti2375  1  0.97194671  0.89391180  0.40595113  1.0
  Ti  Ti2376  1  0.03147052  0.04867371  0.47737970  1.0
  Ti  Ti2377  1  0.03147052  0.21534037  0.47737970  1.0
  Ti  Ti2378  1  0.03147052  0.38200704  0.47737970  1.0
  Ti  Ti2379  1  0.03147052  0.54867371  0.47737970  1.0
  Ti  Ti2380  1  0.03147052  0.71534037  0.47737970  1.0
  Ti  Ti2381  1  0.03147052  0.88200704  0.47737970  1.0
  Ti  Ti2382  1  0.11480385  0.04867371  0.47737970  1.0
  Ti  Ti2383  1  0.11480385  0.21534037  0.47737970  1.0
  Ti  Ti2384  1  0.11480385  0.38200704  0.47737970  1.0
  Ti  Ti2385  1  0.11480385  0.54867371  0.47737970  1.0
  Ti  Ti2386  1  0.11480385  0.71534037  0.47737970  1.0
  Ti  Ti2387  1  0.11480385  0.88200704  0.47737970  1.0
  Ti  Ti2388  1  0.19813719  0.04867371  0.47737970  1.0
  Ti  Ti2389  1  0.19813719  0.21534037  0.47737970  1.0
  Ti  Ti2390  1  0.19813719  0.38200704  0.47737970  1.0
  Ti  Ti2391  1  0.19813719  0.54867371  0.47737970  1.0
  Ti  Ti2392  1  0.19813719  0.71534037  0.47737970  1.0
  Ti  Ti2393  1  0.19813719  0.88200704  0.47737970  1.0
  Ti  Ti2394  1  0.28147052  0.04867371  0.47737970  1.0
  Ti  Ti2395  1  0.28147052  0.21534037  0.47737970  1.0
  Ti  Ti2396  1  0.28147052  0.38200704  0.47737970  1.0
  Ti  Ti2397  1  0.28147052  0.54867371  0.47737970  1.0
  Ti  Ti2398  1  0.28147052  0.71534037  0.47737970  1.0
  Ti  Ti2399  1  0.28147052  0.88200704  0.47737970  1.0
  Ti  Ti2400  1  0.36480385  0.04867371  0.47737970  1.0
  Ti  Ti2401  1  0.36480385  0.21534037  0.47737970  1.0
  Ti  Ti2402  1  0.36480385  0.38200704  0.47737970  1.0
  Ti  Ti2403  1  0.36480385  0.54867371  0.47737970  1.0
  Ti  Ti2404  1  0.36480385  0.71534037  0.47737970  1.0
  Ti  Ti2405  1  0.36480385  0.88200704  0.47737970  1.0
  Ti  Ti2406  1  0.44813719  0.04867371  0.47737970  1.0
  Ti  Ti2407  1  0.44813719  0.21534037  0.47737970  1.0
  Ti  Ti2408  1  0.44813719  0.38200704  0.47737970  1.0
  Ti  Ti2409  1  0.44813719  0.54867371  0.47737970  1.0
  Ti  Ti2410  1  0.44813719  0.71534037  0.47737970  1.0
  Ti  Ti2411  1  0.44813719  0.88200704  0.47737970  1.0
  Ti  Ti2412  1  0.53147052  0.04867371  0.47737970  1.0
  Ti  Ti2413  1  0.53147052  0.21534037  0.47737970  1.0
  Ti  Ti2414  1  0.53147052  0.38200704  0.47737970  1.0
  Ti  Ti2415  1  0.53147052  0.54867371  0.47737970  1.0
  Ti  Ti2416  1  0.53147052  0.71534037  0.47737970  1.0
  Ti  Ti2417  1  0.53147052  0.88200704  0.47737970  1.0
  Ti  Ti2418  1  0.61480385  0.04867371  0.47737970  1.0
  Ti  Ti2419  1  0.61480385  0.21534037  0.47737970  1.0
  Ti  Ti2420  1  0.61480385  0.38200704  0.47737970  1.0
  Ti  Ti2421  1  0.61480385  0.54867371  0.47737970  1.0
  Ti  Ti2422  1  0.61480385  0.71534037  0.47737970  1.0
  Ti  Ti2423  1  0.61480385  0.88200704  0.47737970  1.0
  Ti  Ti2424  1  0.69813719  0.04867371  0.47737970  1.0
  Ti  Ti2425  1  0.69813719  0.21534037  0.47737970  1.0
  Ti  Ti2426  1  0.69813719  0.38200704  0.47737970  1.0
  Ti  Ti2427  1  0.69813719  0.54867371  0.47737970  1.0
  Ti  Ti2428  1  0.69813719  0.71534037  0.47737970  1.0
  Ti  Ti2429  1  0.69813719  0.88200704  0.47737970  1.0
  Ti  Ti2430  1  0.78147052  0.04867371  0.47737970  1.0
  Ti  Ti2431  1  0.78147052  0.21534037  0.47737970  1.0
  Ti  Ti2432  1  0.78147052  0.38200704  0.47737970  1.0
  Ti  Ti2433  1  0.78147052  0.54867371  0.47737970  1.0
  Ti  Ti2434  1  0.78147052  0.71534037  0.47737970  1.0
  Ti  Ti2435  1  0.78147052  0.88200704  0.47737970  1.0
  Ti  Ti2436  1  0.86480385  0.04867371  0.47737970  1.0
  Ti  Ti2437  1  0.86480385  0.21534037  0.47737970  1.0
  Ti  Ti2438  1  0.86480385  0.38200704  0.47737970  1.0
  Ti  Ti2439  1  0.86480385  0.54867371  0.47737970  1.0
  Ti  Ti2440  1  0.86480385  0.71534037  0.47737970  1.0
  Ti  Ti2441  1  0.86480385  0.88200704  0.47737970  1.0
  Ti  Ti2442  1  0.94813719  0.04867371  0.47737970  1.0
  Ti  Ti2443  1  0.94813719  0.21534037  0.47737970  1.0
  Ti  Ti2444  1  0.94813719  0.38200704  0.47737970  1.0
  Ti  Ti2445  1  0.94813719  0.54867371  0.47737970  1.0
  Ti  Ti2446  1  0.94813719  0.71534037  0.47737970  1.0
  Ti  Ti2447  1  0.94813719  0.88200704  0.47737970  1.0
  Ti  Ti2448  1  0.03025807  0.02344387  0.35941074  1.0
  Ti  Ti2449  1  0.03025807  0.19011053  0.35941074  1.0
  Ti  Ti2450  1  0.03025807  0.35677720  0.35941074  1.0
  Ti  Ti2451  1  0.03025807  0.52344387  0.35941074  1.0
  Ti  Ti2452  1  0.03025807  0.69011053  0.35941074  1.0
  Ti  Ti2453  1  0.03025807  0.85677720  0.35941074  1.0
  Ti  Ti2454  1  0.11359140  0.02344387  0.35941074  1.0
  Ti  Ti2455  1  0.11359140  0.19011053  0.35941074  1.0
  Ti  Ti2456  1  0.11359140  0.35677720  0.35941074  1.0
  Ti  Ti2457  1  0.11359140  0.52344387  0.35941074  1.0
  Ti  Ti2458  1  0.11359140  0.69011053  0.35941074  1.0
  Ti  Ti2459  1  0.11359140  0.85677720  0.35941074  1.0
  Ti  Ti2460  1  0.19692473  0.02344387  0.35941074  1.0
  Ti  Ti2461  1  0.19692473  0.19011053  0.35941074  1.0
  Ti  Ti2462  1  0.19692473  0.35677720  0.35941074  1.0
  Ti  Ti2463  1  0.19692473  0.52344387  0.35941074  1.0
  Ti  Ti2464  1  0.19692473  0.69011053  0.35941074  1.0
  Ti  Ti2465  1  0.19692473  0.85677720  0.35941074  1.0
  Ti  Ti2466  1  0.28025807  0.02344387  0.35941074  1.0
  Ti  Ti2467  1  0.28025807  0.19011053  0.35941074  1.0
  Ti  Ti2468  1  0.28025807  0.35677720  0.35941074  1.0
  Ti  Ti2469  1  0.28025807  0.52344387  0.35941074  1.0
  Ti  Ti2470  1  0.28025807  0.69011053  0.35941074  1.0
  Ti  Ti2471  1  0.28025807  0.85677720  0.35941074  1.0
  Ti  Ti2472  1  0.36359140  0.02344387  0.35941074  1.0
  Ti  Ti2473  1  0.36359140  0.19011053  0.35941074  1.0
  Ti  Ti2474  1  0.36359140  0.35677720  0.35941074  1.0
  Ti  Ti2475  1  0.36359140  0.52344387  0.35941074  1.0
  Ti  Ti2476  1  0.36359140  0.69011053  0.35941074  1.0
  Ti  Ti2477  1  0.36359140  0.85677720  0.35941074  1.0
  Ti  Ti2478  1  0.44692473  0.02344387  0.35941074  1.0
  Ti  Ti2479  1  0.44692473  0.19011053  0.35941074  1.0
  Ti  Ti2480  1  0.44692473  0.35677720  0.35941074  1.0
  Ti  Ti2481  1  0.44692473  0.52344387  0.35941074  1.0
  Ti  Ti2482  1  0.44692473  0.69011053  0.35941074  1.0
  Ti  Ti2483  1  0.44692473  0.85677720  0.35941074  1.0
  Ti  Ti2484  1  0.53025807  0.02344387  0.35941074  1.0
  Ti  Ti2485  1  0.53025807  0.19011053  0.35941074  1.0
  Ti  Ti2486  1  0.53025807  0.35677720  0.35941074  1.0
  Ti  Ti2487  1  0.53025807  0.52344387  0.35941074  1.0
  Ti  Ti2488  1  0.53025807  0.69011053  0.35941074  1.0
  Ti  Ti2489  1  0.53025807  0.85677720  0.35941074  1.0
  Ti  Ti2490  1  0.61359140  0.02344387  0.35941074  1.0
  Ti  Ti2491  1  0.61359140  0.19011053  0.35941074  1.0
  Ti  Ti2492  1  0.61359140  0.35677720  0.35941074  1.0
  Ti  Ti2493  1  0.61359140  0.52344387  0.35941074  1.0
  Ti  Ti2494  1  0.61359140  0.69011053  0.35941074  1.0
  Ti  Ti2495  1  0.61359140  0.85677720  0.35941074  1.0
  Ti  Ti2496  1  0.69692473  0.02344387  0.35941074  1.0
  Ti  Ti2497  1  0.69692473  0.19011053  0.35941074  1.0
  Ti  Ti2498  1  0.69692473  0.35677720  0.35941074  1.0
  Ti  Ti2499  1  0.69692473  0.52344387  0.35941074  1.0
  Ti  Ti2500  1  0.69692473  0.69011053  0.35941074  1.0
  Ti  Ti2501  1  0.69692473  0.85677720  0.35941074  1.0
  Ti  Ti2502  1  0.78025807  0.02344387  0.35941074  1.0
  Ti  Ti2503  1  0.78025807  0.19011053  0.35941074  1.0
  Ti  Ti2504  1  0.78025807  0.35677720  0.35941074  1.0
  Ti  Ti2505  1  0.78025807  0.52344387  0.35941074  1.0
  Ti  Ti2506  1  0.78025807  0.69011053  0.35941074  1.0
  Ti  Ti2507  1  0.78025807  0.85677720  0.35941074  1.0
  Ti  Ti2508  1  0.86359140  0.02344387  0.35941074  1.0
  Ti  Ti2509  1  0.86359140  0.19011053  0.35941074  1.0
  Ti  Ti2510  1  0.86359140  0.35677720  0.35941074  1.0
  Ti  Ti2511  1  0.86359140  0.52344387  0.35941074  1.0
  Ti  Ti2512  1  0.86359140  0.69011053  0.35941074  1.0
  Ti  Ti2513  1  0.86359140  0.85677720  0.35941074  1.0
  Ti  Ti2514  1  0.94692473  0.02344387  0.35941074  1.0
  Ti  Ti2515  1  0.94692473  0.19011053  0.35941074  1.0
  Ti  Ti2516  1  0.94692473  0.35677720  0.35941074  1.0
  Ti  Ti2517  1  0.94692473  0.52344387  0.35941074  1.0
  Ti  Ti2518  1  0.94692473  0.69011053  0.35941074  1.0
  Ti  Ti2519  1  0.94692473  0.85677720  0.35941074  1.0
  Ti  Ti2520  1  0.00644854  0.01153911  0.43083932  1.0
  Ti  Ti2521  1  0.00644854  0.17820577  0.43083932  1.0
  Ti  Ti2522  1  0.00644854  0.34487244  0.43083932  1.0
  Ti  Ti2523  1  0.00644854  0.51153911  0.43083932  1.0
  Ti  Ti2524  1  0.00644854  0.67820577  0.43083932  1.0
  Ti  Ti2525  1  0.00644854  0.84487244  0.43083932  1.0
  Ti  Ti2526  1  0.08978188  0.01153911  0.43083932  1.0
  Ti  Ti2527  1  0.08978188  0.17820577  0.43083932  1.0
  Ti  Ti2528  1  0.08978188  0.34487244  0.43083932  1.0
  Ti  Ti2529  1  0.08978188  0.51153911  0.43083932  1.0
  Ti  Ti2530  1  0.08978188  0.67820577  0.43083932  1.0
  Ti  Ti2531  1  0.08978188  0.84487244  0.43083932  1.0
  Ti  Ti2532  1  0.17311521  0.01153911  0.43083932  1.0
  Ti  Ti2533  1  0.17311521  0.17820577  0.43083932  1.0
  Ti  Ti2534  1  0.17311521  0.34487244  0.43083932  1.0
  Ti  Ti2535  1  0.17311521  0.51153911  0.43083932  1.0
  Ti  Ti2536  1  0.17311521  0.67820577  0.43083932  1.0
  Ti  Ti2537  1  0.17311521  0.84487244  0.43083932  1.0
  Ti  Ti2538  1  0.25644854  0.01153911  0.43083932  1.0
  Ti  Ti2539  1  0.25644854  0.17820577  0.43083932  1.0
  Ti  Ti2540  1  0.25644854  0.34487244  0.43083932  1.0
  Ti  Ti2541  1  0.25644854  0.51153911  0.43083932  1.0
  Ti  Ti2542  1  0.25644854  0.67820577  0.43083932  1.0
  Ti  Ti2543  1  0.25644854  0.84487244  0.43083932  1.0
  Ti  Ti2544  1  0.33978188  0.01153911  0.43083932  1.0
  Ti  Ti2545  1  0.33978188  0.17820577  0.43083932  1.0
  Ti  Ti2546  1  0.33978188  0.34487244  0.43083932  1.0
  Ti  Ti2547  1  0.33978188  0.51153911  0.43083932  1.0
  Ti  Ti2548  1  0.33978188  0.67820577  0.43083932  1.0
  Ti  Ti2549  1  0.33978188  0.84487244  0.43083932  1.0
  Ti  Ti2550  1  0.42311521  0.01153911  0.43083932  1.0
  Ti  Ti2551  1  0.42311521  0.17820577  0.43083932  1.0
  Ti  Ti2552  1  0.42311521  0.34487244  0.43083932  1.0
  Ti  Ti2553  1  0.42311521  0.51153911  0.43083932  1.0
  Ti  Ti2554  1  0.42311521  0.67820577  0.43083932  1.0
  Ti  Ti2555  1  0.42311521  0.84487244  0.43083932  1.0
  Ti  Ti2556  1  0.50644854  0.01153911  0.43083932  1.0
  Ti  Ti2557  1  0.50644854  0.17820577  0.43083932  1.0
  Ti  Ti2558  1  0.50644854  0.34487244  0.43083932  1.0
  Ti  Ti2559  1  0.50644854  0.51153911  0.43083932  1.0
  Ti  Ti2560  1  0.50644854  0.67820577  0.43083932  1.0
  Ti  Ti2561  1  0.50644854  0.84487244  0.43083932  1.0
  Ti  Ti2562  1  0.58978188  0.01153911  0.43083932  1.0
  Ti  Ti2563  1  0.58978188  0.17820577  0.43083932  1.0
  Ti  Ti2564  1  0.58978188  0.34487244  0.43083932  1.0
  Ti  Ti2565  1  0.58978188  0.51153911  0.43083932  1.0
  Ti  Ti2566  1  0.58978188  0.67820577  0.43083932  1.0
  Ti  Ti2567  1  0.58978188  0.84487244  0.43083932  1.0
  Ti  Ti2568  1  0.67311521  0.01153911  0.43083932  1.0
  Ti  Ti2569  1  0.67311521  0.17820577  0.43083932  1.0
  Ti  Ti2570  1  0.67311521  0.34487244  0.43083932  1.0
  Ti  Ti2571  1  0.67311521  0.51153911  0.43083932  1.0
  Ti  Ti2572  1  0.67311521  0.67820577  0.43083932  1.0
  Ti  Ti2573  1  0.67311521  0.84487244  0.43083932  1.0
  Ti  Ti2574  1  0.75644854  0.01153911  0.43083932  1.0
  Ti  Ti2575  1  0.75644854  0.17820577  0.43083932  1.0
  Ti  Ti2576  1  0.75644854  0.34487244  0.43083932  1.0
  Ti  Ti2577  1  0.75644854  0.51153911  0.43083932  1.0
  Ti  Ti2578  1  0.75644854  0.67820577  0.43083932  1.0
  Ti  Ti2579  1  0.75644854  0.84487244  0.43083932  1.0
  Ti  Ti2580  1  0.83978188  0.01153911  0.43083932  1.0
  Ti  Ti2581  1  0.83978188  0.17820577  0.43083932  1.0
  Ti  Ti2582  1  0.83978188  0.34487244  0.43083932  1.0
  Ti  Ti2583  1  0.83978188  0.51153911  0.43083932  1.0
  Ti  Ti2584  1  0.83978188  0.67820577  0.43083932  1.0
  Ti  Ti2585  1  0.83978188  0.84487244  0.43083932  1.0
  Ti  Ti2586  1  0.92311521  0.01153911  0.43083932  1.0
  Ti  Ti2587  1  0.92311521  0.17820577  0.43083932  1.0
  Ti  Ti2588  1  0.92311521  0.34487244  0.43083932  1.0
  Ti  Ti2589  1  0.92311521  0.51153911  0.43083932  1.0
  Ti  Ti2590  1  0.92311521  0.67820577  0.43083932  1.0
  Ti  Ti2591  1  0.92311521  0.84487244  0.43083932  1.0
  Ti  Ti2592  1  0.02326864  0.11469488  0.37880377  1.0
  Ti  Ti2593  1  0.02326864  0.28136155  0.37880377  1.0
  Ti  Ti2594  1  0.02326864  0.44802821  0.37880377  1.0
  Ti  Ti2595  1  0.02326864  0.61469488  0.37880377  1.0
  Ti  Ti2596  1  0.02326864  0.78136155  0.37880377  1.0
  Ti  Ti2597  1  0.02326864  0.94802821  0.37880377  1.0
  Ti  Ti2598  1  0.10660197  0.11469488  0.37880377  1.0
  Ti  Ti2599  1  0.10660197  0.28136155  0.37880377  1.0
  Ti  Ti2600  1  0.10660197  0.44802821  0.37880377  1.0
  Ti  Ti2601  1  0.10660197  0.61469488  0.37880377  1.0
  Ti  Ti2602  1  0.10660197  0.78136155  0.37880377  1.0
  Ti  Ti2603  1  0.10660197  0.94802821  0.37880377  1.0
  Ti  Ti2604  1  0.18993530  0.11469488  0.37880377  1.0
  Ti  Ti2605  1  0.18993530  0.28136155  0.37880377  1.0
  Ti  Ti2606  1  0.18993530  0.44802821  0.37880377  1.0
  Ti  Ti2607  1  0.18993530  0.61469488  0.37880377  1.0
  Ti  Ti2608  1  0.18993530  0.78136155  0.37880377  1.0
  Ti  Ti2609  1  0.18993530  0.94802821  0.37880377  1.0
  Ti  Ti2610  1  0.27326864  0.11469488  0.37880377  1.0
  Ti  Ti2611  1  0.27326864  0.28136155  0.37880377  1.0
  Ti  Ti2612  1  0.27326864  0.44802821  0.37880377  1.0
  Ti  Ti2613  1  0.27326864  0.61469488  0.37880377  1.0
  Ti  Ti2614  1  0.27326864  0.78136155  0.37880377  1.0
  Ti  Ti2615  1  0.27326864  0.94802821  0.37880377  1.0
  Ti  Ti2616  1  0.35660197  0.11469488  0.37880377  1.0
  Ti  Ti2617  1  0.35660197  0.28136155  0.37880377  1.0
  Ti  Ti2618  1  0.35660197  0.44802821  0.37880377  1.0
  Ti  Ti2619  1  0.35660197  0.61469488  0.37880377  1.0
  Ti  Ti2620  1  0.35660197  0.78136155  0.37880377  1.0
  Ti  Ti2621  1  0.35660197  0.94802821  0.37880377  1.0
  Ti  Ti2622  1  0.43993530  0.11469488  0.37880377  1.0
  Ti  Ti2623  1  0.43993530  0.28136155  0.37880377  1.0
  Ti  Ti2624  1  0.43993530  0.44802821  0.37880377  1.0
  Ti  Ti2625  1  0.43993530  0.61469488  0.37880377  1.0
  Ti  Ti2626  1  0.43993530  0.78136155  0.37880377  1.0
  Ti  Ti2627  1  0.43993530  0.94802821  0.37880377  1.0
  Ti  Ti2628  1  0.52326864  0.11469488  0.37880377  1.0
  Ti  Ti2629  1  0.52326864  0.28136155  0.37880377  1.0
  Ti  Ti2630  1  0.52326864  0.44802821  0.37880377  1.0
  Ti  Ti2631  1  0.52326864  0.61469488  0.37880377  1.0
  Ti  Ti2632  1  0.52326864  0.78136155  0.37880377  1.0
  Ti  Ti2633  1  0.52326864  0.94802821  0.37880377  1.0
  Ti  Ti2634  1  0.60660197  0.11469488  0.37880377  1.0
  Ti  Ti2635  1  0.60660197  0.28136155  0.37880377  1.0
  Ti  Ti2636  1  0.60660197  0.44802821  0.37880377  1.0
  Ti  Ti2637  1  0.60660197  0.61469488  0.37880377  1.0
  Ti  Ti2638  1  0.60660197  0.78136155  0.37880377  1.0
  Ti  Ti2639  1  0.60660197  0.94802821  0.37880377  1.0
  Ti  Ti2640  1  0.68993530  0.11469488  0.37880377  1.0
  Ti  Ti2641  1  0.68993530  0.28136155  0.37880377  1.0
  Ti  Ti2642  1  0.68993530  0.44802821  0.37880377  1.0
  Ti  Ti2643  1  0.68993530  0.61469488  0.37880377  1.0
  Ti  Ti2644  1  0.68993530  0.78136155  0.37880377  1.0
  Ti  Ti2645  1  0.68993530  0.94802821  0.37880377  1.0
  Ti  Ti2646  1  0.77326864  0.11469488  0.37880377  1.0
  Ti  Ti2647  1  0.77326864  0.28136155  0.37880377  1.0
  Ti  Ti2648  1  0.77326864  0.44802821  0.37880377  1.0
  Ti  Ti2649  1  0.77326864  0.61469488  0.37880377  1.0
  Ti  Ti2650  1  0.77326864  0.78136155  0.37880377  1.0
  Ti  Ti2651  1  0.77326864  0.94802821  0.37880377  1.0
  Ti  Ti2652  1  0.85660197  0.11469488  0.37880377  1.0
  Ti  Ti2653  1  0.85660197  0.28136155  0.37880377  1.0
  Ti  Ti2654  1  0.85660197  0.44802821  0.37880377  1.0
  Ti  Ti2655  1  0.85660197  0.61469488  0.37880377  1.0
  Ti  Ti2656  1  0.85660197  0.78136155  0.37880377  1.0
  Ti  Ti2657  1  0.85660197  0.94802821  0.37880377  1.0
  Ti  Ti2658  1  0.93993530  0.11469488  0.37880377  1.0
  Ti  Ti2659  1  0.93993530  0.28136155  0.37880377  1.0
  Ti  Ti2660  1  0.93993530  0.44802821  0.37880377  1.0
  Ti  Ti2661  1  0.93993530  0.61469488  0.37880377  1.0
  Ti  Ti2662  1  0.93993530  0.78136155  0.37880377  1.0
  Ti  Ti2663  1  0.93993530  0.94802821  0.37880377  1.0
  Ti  Ti2664  1  0.08279245  0.10279012  0.45023234  1.0
  Ti  Ti2665  1  0.08279245  0.26945679  0.45023234  1.0
  Ti  Ti2666  1  0.08279245  0.43612345  0.45023234  1.0
  Ti  Ti2667  1  0.08279245  0.60279012  0.45023234  1.0
  Ti  Ti2668  1  0.08279245  0.76945679  0.45023234  1.0
  Ti  Ti2669  1  0.08279245  0.93612345  0.45023234  1.0
  Ti  Ti2670  1  0.16612578  0.10279012  0.45023234  1.0
  Ti  Ti2671  1  0.16612578  0.26945679  0.45023234  1.0
  Ti  Ti2672  1  0.16612578  0.43612345  0.45023234  1.0
  Ti  Ti2673  1  0.16612578  0.60279012  0.45023234  1.0
  Ti  Ti2674  1  0.16612578  0.76945679  0.45023234  1.0
  Ti  Ti2675  1  0.16612578  0.93612345  0.45023234  1.0
  Ti  Ti2676  1  0.24945911  0.10279012  0.45023234  1.0
  Ti  Ti2677  1  0.24945911  0.26945679  0.45023234  1.0
  Ti  Ti2678  1  0.24945911  0.43612345  0.45023234  1.0
  Ti  Ti2679  1  0.24945911  0.60279012  0.45023234  1.0
  Ti  Ti2680  1  0.24945911  0.76945679  0.45023234  1.0
  Ti  Ti2681  1  0.24945911  0.93612345  0.45023234  1.0
  Ti  Ti2682  1  0.33279245  0.10279012  0.45023234  1.0
  Ti  Ti2683  1  0.33279245  0.26945679  0.45023234  1.0
  Ti  Ti2684  1  0.33279245  0.43612345  0.45023234  1.0
  Ti  Ti2685  1  0.33279245  0.60279012  0.45023234  1.0
  Ti  Ti2686  1  0.33279245  0.76945679  0.45023234  1.0
  Ti  Ti2687  1  0.33279245  0.93612345  0.45023234  1.0
  Ti  Ti2688  1  0.41612578  0.10279012  0.45023234  1.0
  Ti  Ti2689  1  0.41612578  0.26945679  0.45023234  1.0
  Ti  Ti2690  1  0.41612578  0.43612345  0.45023234  1.0
  Ti  Ti2691  1  0.41612578  0.60279012  0.45023234  1.0
  Ti  Ti2692  1  0.41612578  0.76945679  0.45023234  1.0
  Ti  Ti2693  1  0.41612578  0.93612345  0.45023234  1.0
  Ti  Ti2694  1  0.49945911  0.10279012  0.45023234  1.0
  Ti  Ti2695  1  0.49945911  0.26945679  0.45023234  1.0
  Ti  Ti2696  1  0.49945911  0.43612345  0.45023234  1.0
  Ti  Ti2697  1  0.49945911  0.60279012  0.45023234  1.0
  Ti  Ti2698  1  0.49945911  0.76945679  0.45023234  1.0
  Ti  Ti2699  1  0.49945911  0.93612345  0.45023234  1.0
  Ti  Ti2700  1  0.58279245  0.10279012  0.45023234  1.0
  Ti  Ti2701  1  0.58279245  0.26945679  0.45023234  1.0
  Ti  Ti2702  1  0.58279245  0.43612345  0.45023234  1.0
  Ti  Ti2703  1  0.58279245  0.60279012  0.45023234  1.0
  Ti  Ti2704  1  0.58279245  0.76945679  0.45023234  1.0
  Ti  Ti2705  1  0.58279245  0.93612345  0.45023234  1.0
  Ti  Ti2706  1  0.66612578  0.10279012  0.45023234  1.0
  Ti  Ti2707  1  0.66612578  0.26945679  0.45023234  1.0
  Ti  Ti2708  1  0.66612578  0.43612345  0.45023234  1.0
  Ti  Ti2709  1  0.66612578  0.60279012  0.45023234  1.0
  Ti  Ti2710  1  0.66612578  0.76945679  0.45023234  1.0
  Ti  Ti2711  1  0.66612578  0.93612345  0.45023234  1.0
  Ti  Ti2712  1  0.74945911  0.10279012  0.45023234  1.0
  Ti  Ti2713  1  0.74945911  0.26945679  0.45023234  1.0
  Ti  Ti2714  1  0.74945911  0.43612345  0.45023234  1.0
  Ti  Ti2715  1  0.74945911  0.60279012  0.45023234  1.0
  Ti  Ti2716  1  0.74945911  0.76945679  0.45023234  1.0
  Ti  Ti2717  1  0.74945911  0.93612345  0.45023234  1.0
  Ti  Ti2718  1  0.83279245  0.10279012  0.45023234  1.0
  Ti  Ti2719  1  0.83279245  0.26945679  0.45023234  1.0
  Ti  Ti2720  1  0.83279245  0.43612345  0.45023234  1.0
  Ti  Ti2721  1  0.83279245  0.60279012  0.45023234  1.0
  Ti  Ti2722  1  0.83279245  0.76945679  0.45023234  1.0
  Ti  Ti2723  1  0.83279245  0.93612345  0.45023234  1.0
  Ti  Ti2724  1  0.91612578  0.10279012  0.45023234  1.0
  Ti  Ti2725  1  0.91612578  0.26945679  0.45023234  1.0
  Ti  Ti2726  1  0.91612578  0.43612345  0.45023234  1.0
  Ti  Ti2727  1  0.91612578  0.60279012  0.45023234  1.0
  Ti  Ti2728  1  0.91612578  0.76945679  0.45023234  1.0
  Ti  Ti2729  1  0.91612578  0.93612345  0.45023234  1.0
  Ti  Ti2730  1  0.99945911  0.10279012  0.45023234  1.0
  Ti  Ti2731  1  0.99945911  0.26945679  0.45023234  1.0
  Ti  Ti2732  1  0.99945911  0.43612345  0.45023234  1.0
  Ti  Ti2733  1  0.99945911  0.60279012  0.45023234  1.0
  Ti  Ti2734  1  0.99945911  0.76945679  0.45023234  1.0
  Ti  Ti2735  1  0.99945911  0.93612345  0.45023234  1.0
  Ti  Ti2736  1  0.07006725  0.04716022  0.36310504  1.0
  Ti  Ti2737  1  0.07006725  0.21382689  0.36310504  1.0
  Ti  Ti2738  1  0.07006725  0.38049356  0.36310504  1.0
  Ti  Ti2739  1  0.07006725  0.54716022  0.36310504  1.0
  Ti  Ti2740  1  0.07006725  0.71382689  0.36310504  1.0
  Ti  Ti2741  1  0.07006725  0.88049356  0.36310504  1.0
  Ti  Ti2742  1  0.15340058  0.04716022  0.36310504  1.0
  Ti  Ti2743  1  0.15340058  0.21382689  0.36310504  1.0
  Ti  Ti2744  1  0.15340058  0.38049356  0.36310504  1.0
  Ti  Ti2745  1  0.15340058  0.54716022  0.36310504  1.0
  Ti  Ti2746  1  0.15340058  0.71382689  0.36310504  1.0
  Ti  Ti2747  1  0.15340058  0.88049356  0.36310504  1.0
  Ti  Ti2748  1  0.23673391  0.04716022  0.36310504  1.0
  Ti  Ti2749  1  0.23673391  0.21382689  0.36310504  1.0
  Ti  Ti2750  1  0.23673391  0.38049356  0.36310504  1.0
  Ti  Ti2751  1  0.23673391  0.54716022  0.36310504  1.0
  Ti  Ti2752  1  0.23673391  0.71382689  0.36310504  1.0
  Ti  Ti2753  1  0.23673391  0.88049356  0.36310504  1.0
  Ti  Ti2754  1  0.32006725  0.04716022  0.36310504  1.0
  Ti  Ti2755  1  0.32006725  0.21382689  0.36310504  1.0
  Ti  Ti2756  1  0.32006725  0.38049356  0.36310504  1.0
  Ti  Ti2757  1  0.32006725  0.54716022  0.36310504  1.0
  Ti  Ti2758  1  0.32006725  0.71382689  0.36310504  1.0
  Ti  Ti2759  1  0.32006725  0.88049356  0.36310504  1.0
  Ti  Ti2760  1  0.40340058  0.04716022  0.36310504  1.0
  Ti  Ti2761  1  0.40340058  0.21382689  0.36310504  1.0
  Ti  Ti2762  1  0.40340058  0.38049356  0.36310504  1.0
  Ti  Ti2763  1  0.40340058  0.54716022  0.36310504  1.0
  Ti  Ti2764  1  0.40340058  0.71382689  0.36310504  1.0
  Ti  Ti2765  1  0.40340058  0.88049356  0.36310504  1.0
  Ti  Ti2766  1  0.48673391  0.04716022  0.36310504  1.0
  Ti  Ti2767  1  0.48673391  0.21382689  0.36310504  1.0
  Ti  Ti2768  1  0.48673391  0.38049356  0.36310504  1.0
  Ti  Ti2769  1  0.48673391  0.54716022  0.36310504  1.0
  Ti  Ti2770  1  0.48673391  0.71382689  0.36310504  1.0
  Ti  Ti2771  1  0.48673391  0.88049356  0.36310504  1.0
  Ti  Ti2772  1  0.57006725  0.04716022  0.36310504  1.0
  Ti  Ti2773  1  0.57006725  0.21382689  0.36310504  1.0
  Ti  Ti2774  1  0.57006725  0.38049356  0.36310504  1.0
  Ti  Ti2775  1  0.57006725  0.54716022  0.36310504  1.0
  Ti  Ti2776  1  0.57006725  0.71382689  0.36310504  1.0
  Ti  Ti2777  1  0.57006725  0.88049356  0.36310504  1.0
  Ti  Ti2778  1  0.65340058  0.04716022  0.36310504  1.0
  Ti  Ti2779  1  0.65340058  0.21382689  0.36310504  1.0
  Ti  Ti2780  1  0.65340058  0.38049356  0.36310504  1.0
  Ti  Ti2781  1  0.65340058  0.54716022  0.36310504  1.0
  Ti  Ti2782  1  0.65340058  0.71382689  0.36310504  1.0
  Ti  Ti2783  1  0.65340058  0.88049356  0.36310504  1.0
  Ti  Ti2784  1  0.73673391  0.04716022  0.36310504  1.0
  Ti  Ti2785  1  0.73673391  0.21382689  0.36310504  1.0
  Ti  Ti2786  1  0.73673391  0.38049356  0.36310504  1.0
  Ti  Ti2787  1  0.73673391  0.54716022  0.36310504  1.0
  Ti  Ti2788  1  0.73673391  0.71382689  0.36310504  1.0
  Ti  Ti2789  1  0.73673391  0.88049356  0.36310504  1.0
  Ti  Ti2790  1  0.82006725  0.04716022  0.36310504  1.0
  Ti  Ti2791  1  0.82006725  0.21382689  0.36310504  1.0
  Ti  Ti2792  1  0.82006725  0.38049356  0.36310504  1.0
  Ti  Ti2793  1  0.82006725  0.54716022  0.36310504  1.0
  Ti  Ti2794  1  0.82006725  0.71382689  0.36310504  1.0
  Ti  Ti2795  1  0.82006725  0.88049356  0.36310504  1.0
  Ti  Ti2796  1  0.90340058  0.04716022  0.36310504  1.0
  Ti  Ti2797  1  0.90340058  0.21382689  0.36310504  1.0
  Ti  Ti2798  1  0.90340058  0.38049356  0.36310504  1.0
  Ti  Ti2799  1  0.90340058  0.54716022  0.36310504  1.0
  Ti  Ti2800  1  0.90340058  0.71382689  0.36310504  1.0
  Ti  Ti2801  1  0.90340058  0.88049356  0.36310504  1.0
  Ti  Ti2802  1  0.98673391  0.04716022  0.36310504  1.0
  Ti  Ti2803  1  0.98673391  0.21382689  0.36310504  1.0
  Ti  Ti2804  1  0.98673391  0.38049356  0.36310504  1.0
  Ti  Ti2805  1  0.98673391  0.54716022  0.36310504  1.0
  Ti  Ti2806  1  0.98673391  0.71382689  0.36310504  1.0
  Ti  Ti2807  1  0.98673391  0.88049356  0.36310504  1.0
  Ti  Ti2808  1  0.04625772  0.03525546  0.43453362  1.0
  Ti  Ti2809  1  0.04625772  0.20192213  0.43453362  1.0
  Ti  Ti2810  1  0.04625772  0.36858880  0.43453362  1.0
  Ti  Ti2811  1  0.04625772  0.53525546  0.43453362  1.0
  Ti  Ti2812  1  0.04625772  0.70192213  0.43453362  1.0
  Ti  Ti2813  1  0.04625772  0.86858880  0.43453362  1.0
  Ti  Ti2814  1  0.12959106  0.03525546  0.43453362  1.0
  Ti  Ti2815  1  0.12959106  0.20192213  0.43453362  1.0
  Ti  Ti2816  1  0.12959106  0.36858880  0.43453362  1.0
  Ti  Ti2817  1  0.12959106  0.53525546  0.43453362  1.0
  Ti  Ti2818  1  0.12959106  0.70192213  0.43453362  1.0
  Ti  Ti2819  1  0.12959106  0.86858880  0.43453362  1.0
  Ti  Ti2820  1  0.21292439  0.03525546  0.43453362  1.0
  Ti  Ti2821  1  0.21292439  0.20192213  0.43453362  1.0
  Ti  Ti2822  1  0.21292439  0.36858880  0.43453362  1.0
  Ti  Ti2823  1  0.21292439  0.53525546  0.43453362  1.0
  Ti  Ti2824  1  0.21292439  0.70192213  0.43453362  1.0
  Ti  Ti2825  1  0.21292439  0.86858880  0.43453362  1.0
  Ti  Ti2826  1  0.29625772  0.03525546  0.43453362  1.0
  Ti  Ti2827  1  0.29625772  0.20192213  0.43453362  1.0
  Ti  Ti2828  1  0.29625772  0.36858880  0.43453362  1.0
  Ti  Ti2829  1  0.29625772  0.53525546  0.43453362  1.0
  Ti  Ti2830  1  0.29625772  0.70192213  0.43453362  1.0
  Ti  Ti2831  1  0.29625772  0.86858880  0.43453362  1.0
  Ti  Ti2832  1  0.37959106  0.03525546  0.43453362  1.0
  Ti  Ti2833  1  0.37959106  0.20192213  0.43453362  1.0
  Ti  Ti2834  1  0.37959106  0.36858880  0.43453362  1.0
  Ti  Ti2835  1  0.37959106  0.53525546  0.43453362  1.0
  Ti  Ti2836  1  0.37959106  0.70192213  0.43453362  1.0
  Ti  Ti2837  1  0.37959106  0.86858880  0.43453362  1.0
  Ti  Ti2838  1  0.46292439  0.03525546  0.43453362  1.0
  Ti  Ti2839  1  0.46292439  0.20192213  0.43453362  1.0
  Ti  Ti2840  1  0.46292439  0.36858880  0.43453362  1.0
  Ti  Ti2841  1  0.46292439  0.53525546  0.43453362  1.0
  Ti  Ti2842  1  0.46292439  0.70192213  0.43453362  1.0
  Ti  Ti2843  1  0.46292439  0.86858880  0.43453362  1.0
  Ti  Ti2844  1  0.54625772  0.03525546  0.43453362  1.0
  Ti  Ti2845  1  0.54625772  0.20192213  0.43453362  1.0
  Ti  Ti2846  1  0.54625772  0.36858880  0.43453362  1.0
  Ti  Ti2847  1  0.54625772  0.53525546  0.43453362  1.0
  Ti  Ti2848  1  0.54625772  0.70192213  0.43453362  1.0
  Ti  Ti2849  1  0.54625772  0.86858880  0.43453362  1.0
  Ti  Ti2850  1  0.62959106  0.03525546  0.43453362  1.0
  Ti  Ti2851  1  0.62959106  0.20192213  0.43453362  1.0
  Ti  Ti2852  1  0.62959106  0.36858880  0.43453362  1.0
  Ti  Ti2853  1  0.62959106  0.53525546  0.43453362  1.0
  Ti  Ti2854  1  0.62959106  0.70192213  0.43453362  1.0
  Ti  Ti2855  1  0.62959106  0.86858880  0.43453362  1.0
  Ti  Ti2856  1  0.71292439  0.03525546  0.43453362  1.0
  Ti  Ti2857  1  0.71292439  0.20192213  0.43453362  1.0
  Ti  Ti2858  1  0.71292439  0.36858880  0.43453362  1.0
  Ti  Ti2859  1  0.71292439  0.53525546  0.43453362  1.0
  Ti  Ti2860  1  0.71292439  0.70192213  0.43453362  1.0
  Ti  Ti2861  1  0.71292439  0.86858880  0.43453362  1.0
  Ti  Ti2862  1  0.79625772  0.03525546  0.43453362  1.0
  Ti  Ti2863  1  0.79625772  0.20192213  0.43453362  1.0
  Ti  Ti2864  1  0.79625772  0.36858880  0.43453362  1.0
  Ti  Ti2865  1  0.79625772  0.53525546  0.43453362  1.0
  Ti  Ti2866  1  0.79625772  0.70192213  0.43453362  1.0
  Ti  Ti2867  1  0.79625772  0.86858880  0.43453362  1.0
  Ti  Ti2868  1  0.87959106  0.03525546  0.43453362  1.0
  Ti  Ti2869  1  0.87959106  0.20192213  0.43453362  1.0
  Ti  Ti2870  1  0.87959106  0.36858880  0.43453362  1.0
  Ti  Ti2871  1  0.87959106  0.53525546  0.43453362  1.0
  Ti  Ti2872  1  0.87959106  0.70192213  0.43453362  1.0
  Ti  Ti2873  1  0.87959106  0.86858880  0.43453362  1.0
  Ti  Ti2874  1  0.96292439  0.03525546  0.43453362  1.0
  Ti  Ti2875  1  0.96292439  0.20192213  0.43453362  1.0
  Ti  Ti2876  1  0.96292439  0.36858880  0.43453362  1.0
  Ti  Ti2877  1  0.96292439  0.53525546  0.43453362  1.0
  Ti  Ti2878  1  0.96292439  0.70192213  0.43453362  1.0
  Ti  Ti2879  1  0.96292439  0.86858880  0.43453362  1.0
  Ti  Ti2880  1  0.02619453  0.14264465  0.49860761  1.0
  Ti  Ti2881  1  0.02619453  0.30931132  0.49860761  1.0
  Ti  Ti2882  1  0.02619453  0.47597798  0.49860761  1.0
  Ti  Ti2883  1  0.02619453  0.64264465  0.49860761  1.0
  Ti  Ti2884  1  0.02619453  0.80931132  0.49860761  1.0
  Ti  Ti2885  1  0.02619453  0.97597798  0.49860761  1.0
  Ti  Ti2886  1  0.10952786  0.14264465  0.49860761  1.0
  Ti  Ti2887  1  0.10952786  0.30931132  0.49860761  1.0
  Ti  Ti2888  1  0.10952786  0.47597798  0.49860761  1.0
  Ti  Ti2889  1  0.10952786  0.64264465  0.49860761  1.0
  Ti  Ti2890  1  0.10952786  0.80931132  0.49860761  1.0
  Ti  Ti2891  1  0.10952786  0.97597798  0.49860761  1.0
  Ti  Ti2892  1  0.19286120  0.14264465  0.49860761  1.0
  Ti  Ti2893  1  0.19286120  0.30931132  0.49860761  1.0
  Ti  Ti2894  1  0.19286120  0.47597798  0.49860761  1.0
  Ti  Ti2895  1  0.19286120  0.64264465  0.49860761  1.0
  Ti  Ti2896  1  0.19286120  0.80931132  0.49860761  1.0
  Ti  Ti2897  1  0.19286120  0.97597798  0.49860761  1.0
  Ti  Ti2898  1  0.27619453  0.14264465  0.49860761  1.0
  Ti  Ti2899  1  0.27619453  0.30931132  0.49860761  1.0
  Ti  Ti2900  1  0.27619453  0.47597798  0.49860761  1.0
  Ti  Ti2901  1  0.27619453  0.64264465  0.49860761  1.0
  Ti  Ti2902  1  0.27619453  0.80931132  0.49860761  1.0
  Ti  Ti2903  1  0.27619453  0.97597798  0.49860761  1.0
  Ti  Ti2904  1  0.35952786  0.14264465  0.49860761  1.0
  Ti  Ti2905  1  0.35952786  0.30931132  0.49860761  1.0
  Ti  Ti2906  1  0.35952786  0.47597798  0.49860761  1.0
  Ti  Ti2907  1  0.35952786  0.64264465  0.49860761  1.0
  Ti  Ti2908  1  0.35952786  0.80931132  0.49860761  1.0
  Ti  Ti2909  1  0.35952786  0.97597798  0.49860761  1.0
  Ti  Ti2910  1  0.44286120  0.14264465  0.49860761  1.0
  Ti  Ti2911  1  0.44286120  0.30931132  0.49860761  1.0
  Ti  Ti2912  1  0.44286120  0.47597798  0.49860761  1.0
  Ti  Ti2913  1  0.44286120  0.64264465  0.49860761  1.0
  Ti  Ti2914  1  0.44286120  0.80931132  0.49860761  1.0
  Ti  Ti2915  1  0.44286120  0.97597798  0.49860761  1.0
  Ti  Ti2916  1  0.52619453  0.14264465  0.49860761  1.0
  Ti  Ti2917  1  0.52619453  0.30931132  0.49860761  1.0
  Ti  Ti2918  1  0.52619453  0.47597798  0.49860761  1.0
  Ti  Ti2919  1  0.52619453  0.64264465  0.49860761  1.0
  Ti  Ti2920  1  0.52619453  0.80931132  0.49860761  1.0
  Ti  Ti2921  1  0.52619453  0.97597798  0.49860761  1.0
  Ti  Ti2922  1  0.60952786  0.14264465  0.49860761  1.0
  Ti  Ti2923  1  0.60952786  0.30931132  0.49860761  1.0
  Ti  Ti2924  1  0.60952786  0.47597798  0.49860761  1.0
  Ti  Ti2925  1  0.60952786  0.64264465  0.49860761  1.0
  Ti  Ti2926  1  0.60952786  0.80931132  0.49860761  1.0
  Ti  Ti2927  1  0.60952786  0.97597798  0.49860761  1.0
  Ti  Ti2928  1  0.69286120  0.14264465  0.49860761  1.0
  Ti  Ti2929  1  0.69286120  0.30931132  0.49860761  1.0
  Ti  Ti2930  1  0.69286120  0.47597798  0.49860761  1.0
  Ti  Ti2931  1  0.69286120  0.64264465  0.49860761  1.0
  Ti  Ti2932  1  0.69286120  0.80931132  0.49860761  1.0
  Ti  Ti2933  1  0.69286120  0.97597798  0.49860761  1.0
  Ti  Ti2934  1  0.77619453  0.14264465  0.49860761  1.0
  Ti  Ti2935  1  0.77619453  0.30931132  0.49860761  1.0
  Ti  Ti2936  1  0.77619453  0.47597798  0.49860761  1.0
  Ti  Ti2937  1  0.77619453  0.64264465  0.49860761  1.0
  Ti  Ti2938  1  0.77619453  0.80931132  0.49860761  1.0
  Ti  Ti2939  1  0.77619453  0.97597798  0.49860761  1.0
  Ti  Ti2940  1  0.85952786  0.14264465  0.49860761  1.0
  Ti  Ti2941  1  0.85952786  0.30931132  0.49860761  1.0
  Ti  Ti2942  1  0.85952786  0.47597798  0.49860761  1.0
  Ti  Ti2943  1  0.85952786  0.64264465  0.49860761  1.0
  Ti  Ti2944  1  0.85952786  0.80931132  0.49860761  1.0
  Ti  Ti2945  1  0.85952786  0.97597798  0.49860761  1.0
  Ti  Ti2946  1  0.94286120  0.14264465  0.49860761  1.0
  Ti  Ti2947  1  0.94286120  0.30931132  0.49860761  1.0
  Ti  Ti2948  1  0.94286120  0.47597798  0.49860761  1.0
  Ti  Ti2949  1  0.94286120  0.64264465  0.49860761  1.0
  Ti  Ti2950  1  0.94286120  0.80931132  0.49860761  1.0
  Ti  Ti2951  1  0.94286120  0.97597798  0.49860761  1.0
  Ti  Ti2952  1  0.05000405  0.15454941  0.42717904  1.0
  Ti  Ti2953  1  0.05000405  0.32121608  0.42717904  1.0
  Ti  Ti2954  1  0.05000405  0.48788274  0.42717904  1.0
  Ti  Ti2955  1  0.05000405  0.65454941  0.42717904  1.0
  Ti  Ti2956  1  0.05000405  0.82121608  0.42717904  1.0
  Ti  Ti2957  1  0.05000405  0.98788274  0.42717904  1.0
  Ti  Ti2958  1  0.13333739  0.15454941  0.42717904  1.0
  Ti  Ti2959  1  0.13333739  0.32121608  0.42717904  1.0
  Ti  Ti2960  1  0.13333739  0.48788274  0.42717904  1.0
  Ti  Ti2961  1  0.13333739  0.65454941  0.42717904  1.0
  Ti  Ti2962  1  0.13333739  0.82121608  0.42717904  1.0
  Ti  Ti2963  1  0.13333739  0.98788274  0.42717904  1.0
  Ti  Ti2964  1  0.21667072  0.15454941  0.42717904  1.0
  Ti  Ti2965  1  0.21667072  0.32121608  0.42717904  1.0
  Ti  Ti2966  1  0.21667072  0.48788274  0.42717904  1.0
  Ti  Ti2967  1  0.21667072  0.65454941  0.42717904  1.0
  Ti  Ti2968  1  0.21667072  0.82121608  0.42717904  1.0
  Ti  Ti2969  1  0.21667072  0.98788274  0.42717904  1.0
  Ti  Ti2970  1  0.30000405  0.15454941  0.42717904  1.0
  Ti  Ti2971  1  0.30000405  0.32121608  0.42717904  1.0
  Ti  Ti2972  1  0.30000405  0.48788274  0.42717904  1.0
  Ti  Ti2973  1  0.30000405  0.65454941  0.42717904  1.0
  Ti  Ti2974  1  0.30000405  0.82121608  0.42717904  1.0
  Ti  Ti2975  1  0.30000405  0.98788274  0.42717904  1.0
  Ti  Ti2976  1  0.38333739  0.15454941  0.42717904  1.0
  Ti  Ti2977  1  0.38333739  0.32121608  0.42717904  1.0
  Ti  Ti2978  1  0.38333739  0.48788274  0.42717904  1.0
  Ti  Ti2979  1  0.38333739  0.65454941  0.42717904  1.0
  Ti  Ti2980  1  0.38333739  0.82121608  0.42717904  1.0
  Ti  Ti2981  1  0.38333739  0.98788274  0.42717904  1.0
  Ti  Ti2982  1  0.46667072  0.15454941  0.42717904  1.0
  Ti  Ti2983  1  0.46667072  0.32121608  0.42717904  1.0
  Ti  Ti2984  1  0.46667072  0.48788274  0.42717904  1.0
  Ti  Ti2985  1  0.46667072  0.65454941  0.42717904  1.0
  Ti  Ti2986  1  0.46667072  0.82121608  0.42717904  1.0
  Ti  Ti2987  1  0.46667072  0.98788274  0.42717904  1.0
  Ti  Ti2988  1  0.55000405  0.15454941  0.42717904  1.0
  Ti  Ti2989  1  0.55000405  0.32121608  0.42717904  1.0
  Ti  Ti2990  1  0.55000405  0.48788274  0.42717904  1.0
  Ti  Ti2991  1  0.55000405  0.65454941  0.42717904  1.0
  Ti  Ti2992  1  0.55000405  0.82121608  0.42717904  1.0
  Ti  Ti2993  1  0.55000405  0.98788274  0.42717904  1.0
  Ti  Ti2994  1  0.63333739  0.15454941  0.42717904  1.0
  Ti  Ti2995  1  0.63333739  0.32121608  0.42717904  1.0
  Ti  Ti2996  1  0.63333739  0.48788274  0.42717904  1.0
  Ti  Ti2997  1  0.63333739  0.65454941  0.42717904  1.0
  Ti  Ti2998  1  0.63333739  0.82121608  0.42717904  1.0
  Ti  Ti2999  1  0.63333739  0.98788274  0.42717904  1.0
  Ti  Ti3000  1  0.71667072  0.15454941  0.42717904  1.0
  Ti  Ti3001  1  0.71667072  0.32121608  0.42717904  1.0
  Ti  Ti3002  1  0.71667072  0.48788274  0.42717904  1.0
  Ti  Ti3003  1  0.71667072  0.65454941  0.42717904  1.0
  Ti  Ti3004  1  0.71667072  0.82121608  0.42717904  1.0
  Ti  Ti3005  1  0.71667072  0.98788274  0.42717904  1.0
  Ti  Ti3006  1  0.80000405  0.15454941  0.42717904  1.0
  Ti  Ti3007  1  0.80000405  0.32121608  0.42717904  1.0
  Ti  Ti3008  1  0.80000405  0.48788274  0.42717904  1.0
  Ti  Ti3009  1  0.80000405  0.65454941  0.42717904  1.0
  Ti  Ti3010  1  0.80000405  0.82121608  0.42717904  1.0
  Ti  Ti3011  1  0.80000405  0.98788274  0.42717904  1.0
  Ti  Ti3012  1  0.88333739  0.15454941  0.42717904  1.0
  Ti  Ti3013  1  0.88333739  0.32121608  0.42717904  1.0
  Ti  Ti3014  1  0.88333739  0.48788274  0.42717904  1.0
  Ti  Ti3015  1  0.88333739  0.65454941  0.42717904  1.0
  Ti  Ti3016  1  0.88333739  0.82121608  0.42717904  1.0
  Ti  Ti3017  1  0.88333739  0.98788274  0.42717904  1.0
  Ti  Ti3018  1  0.96667072  0.15454941  0.42717904  1.0
  Ti  Ti3019  1  0.96667072  0.32121608  0.42717904  1.0
  Ti  Ti3020  1  0.96667072  0.48788274  0.42717904  1.0
  Ti  Ti3021  1  0.96667072  0.65454941  0.42717904  1.0
  Ti  Ti3022  1  0.96667072  0.82121608  0.42717904  1.0
  Ti  Ti3023  1  0.96667072  0.98788274  0.42717904  1.0
  Ti  Ti3024  1  0.06685325  0.09107986  0.37302405  1.0
  Ti  Ti3025  1  0.06685325  0.25774652  0.37302405  1.0
  Ti  Ti3026  1  0.06685325  0.42441319  0.37302405  1.0
  Ti  Ti3027  1  0.06685325  0.59107986  0.37302405  1.0
  Ti  Ti3028  1  0.06685325  0.75774652  0.37302405  1.0
  Ti  Ti3029  1  0.06685325  0.92441319  0.37302405  1.0
  Ti  Ti3030  1  0.15018658  0.09107986  0.37302405  1.0
  Ti  Ti3031  1  0.15018658  0.25774652  0.37302405  1.0
  Ti  Ti3032  1  0.15018658  0.42441319  0.37302405  1.0
  Ti  Ti3033  1  0.15018658  0.59107986  0.37302405  1.0
  Ti  Ti3034  1  0.15018658  0.75774652  0.37302405  1.0
  Ti  Ti3035  1  0.15018658  0.92441319  0.37302405  1.0
  Ti  Ti3036  1  0.23351992  0.09107986  0.37302405  1.0
  Ti  Ti3037  1  0.23351992  0.25774652  0.37302405  1.0
  Ti  Ti3038  1  0.23351992  0.42441319  0.37302405  1.0
  Ti  Ti3039  1  0.23351992  0.59107986  0.37302405  1.0
  Ti  Ti3040  1  0.23351992  0.75774652  0.37302405  1.0
  Ti  Ti3041  1  0.23351992  0.92441319  0.37302405  1.0
  Ti  Ti3042  1  0.31685325  0.09107986  0.37302405  1.0
  Ti  Ti3043  1  0.31685325  0.25774652  0.37302405  1.0
  Ti  Ti3044  1  0.31685325  0.42441319  0.37302405  1.0
  Ti  Ti3045  1  0.31685325  0.59107986  0.37302405  1.0
  Ti  Ti3046  1  0.31685325  0.75774652  0.37302405  1.0
  Ti  Ti3047  1  0.31685325  0.92441319  0.37302405  1.0
  Ti  Ti3048  1  0.40018658  0.09107986  0.37302405  1.0
  Ti  Ti3049  1  0.40018658  0.25774652  0.37302405  1.0
  Ti  Ti3050  1  0.40018658  0.42441319  0.37302405  1.0
  Ti  Ti3051  1  0.40018658  0.59107986  0.37302405  1.0
  Ti  Ti3052  1  0.40018658  0.75774652  0.37302405  1.0
  Ti  Ti3053  1  0.40018658  0.92441319  0.37302405  1.0
  Ti  Ti3054  1  0.48351992  0.09107986  0.37302405  1.0
  Ti  Ti3055  1  0.48351992  0.25774652  0.37302405  1.0
  Ti  Ti3056  1  0.48351992  0.42441319  0.37302405  1.0
  Ti  Ti3057  1  0.48351992  0.59107986  0.37302405  1.0
  Ti  Ti3058  1  0.48351992  0.75774652  0.37302405  1.0
  Ti  Ti3059  1  0.48351992  0.92441319  0.37302405  1.0
  Ti  Ti3060  1  0.56685325  0.09107986  0.37302405  1.0
  Ti  Ti3061  1  0.56685325  0.25774652  0.37302405  1.0
  Ti  Ti3062  1  0.56685325  0.42441319  0.37302405  1.0
  Ti  Ti3063  1  0.56685325  0.59107986  0.37302405  1.0
  Ti  Ti3064  1  0.56685325  0.75774652  0.37302405  1.0
  Ti  Ti3065  1  0.56685325  0.92441319  0.37302405  1.0
  Ti  Ti3066  1  0.65018658  0.09107986  0.37302405  1.0
  Ti  Ti3067  1  0.65018658  0.25774652  0.37302405  1.0
  Ti  Ti3068  1  0.65018658  0.42441319  0.37302405  1.0
  Ti  Ti3069  1  0.65018658  0.59107986  0.37302405  1.0
  Ti  Ti3070  1  0.65018658  0.75774652  0.37302405  1.0
  Ti  Ti3071  1  0.65018658  0.92441319  0.37302405  1.0
  Ti  Ti3072  1  0.73351992  0.09107986  0.37302405  1.0
  Ti  Ti3073  1  0.73351992  0.25774652  0.37302405  1.0
  Ti  Ti3074  1  0.73351992  0.42441319  0.37302405  1.0
  Ti  Ti3075  1  0.73351992  0.59107986  0.37302405  1.0
  Ti  Ti3076  1  0.73351992  0.75774652  0.37302405  1.0
  Ti  Ti3077  1  0.73351992  0.92441319  0.37302405  1.0
  Ti  Ti3078  1  0.81685325  0.09107986  0.37302405  1.0
  Ti  Ti3079  1  0.81685325  0.25774652  0.37302405  1.0
  Ti  Ti3080  1  0.81685325  0.42441319  0.37302405  1.0
  Ti  Ti3081  1  0.81685325  0.59107986  0.37302405  1.0
  Ti  Ti3082  1  0.81685325  0.75774652  0.37302405  1.0
  Ti  Ti3083  1  0.81685325  0.92441319  0.37302405  1.0
  Ti  Ti3084  1  0.90018658  0.09107986  0.37302405  1.0
  Ti  Ti3085  1  0.90018658  0.25774652  0.37302405  1.0
  Ti  Ti3086  1  0.90018658  0.42441319  0.37302405  1.0
  Ti  Ti3087  1  0.90018658  0.59107986  0.37302405  1.0
  Ti  Ti3088  1  0.90018658  0.75774652  0.37302405  1.0
  Ti  Ti3089  1  0.90018658  0.92441319  0.37302405  1.0
  Ti  Ti3090  1  0.98351992  0.09107986  0.37302405  1.0
  Ti  Ti3091  1  0.98351992  0.25774652  0.37302405  1.0
  Ti  Ti3092  1  0.98351992  0.42441319  0.37302405  1.0
  Ti  Ti3093  1  0.98351992  0.59107986  0.37302405  1.0
  Ti  Ti3094  1  0.98351992  0.75774652  0.37302405  1.0
  Ti  Ti3095  1  0.98351992  0.92441319  0.37302405  1.0
  Ti  Ti3096  1  0.04304373  0.07917509  0.44445263  1.0
  Ti  Ti3097  1  0.04304373  0.24584176  0.44445263  1.0
  Ti  Ti3098  1  0.04304373  0.41250843  0.44445263  1.0
  Ti  Ti3099  1  0.04304373  0.57917509  0.44445263  1.0
  Ti  Ti3100  1  0.04304373  0.74584176  0.44445263  1.0
  Ti  Ti3101  1  0.04304373  0.91250843  0.44445263  1.0
  Ti  Ti3102  1  0.12637706  0.07917509  0.44445263  1.0
  Ti  Ti3103  1  0.12637706  0.24584176  0.44445263  1.0
  Ti  Ti3104  1  0.12637706  0.41250843  0.44445263  1.0
  Ti  Ti3105  1  0.12637706  0.57917509  0.44445263  1.0
  Ti  Ti3106  1  0.12637706  0.74584176  0.44445263  1.0
  Ti  Ti3107  1  0.12637706  0.91250843  0.44445263  1.0
  Ti  Ti3108  1  0.20971039  0.07917509  0.44445263  1.0
  Ti  Ti3109  1  0.20971039  0.24584176  0.44445263  1.0
  Ti  Ti3110  1  0.20971039  0.41250843  0.44445263  1.0
  Ti  Ti3111  1  0.20971039  0.57917509  0.44445263  1.0
  Ti  Ti3112  1  0.20971039  0.74584176  0.44445263  1.0
  Ti  Ti3113  1  0.20971039  0.91250843  0.44445263  1.0
  Ti  Ti3114  1  0.29304373  0.07917509  0.44445263  1.0
  Ti  Ti3115  1  0.29304373  0.24584176  0.44445263  1.0
  Ti  Ti3116  1  0.29304373  0.41250843  0.44445263  1.0
  Ti  Ti3117  1  0.29304373  0.57917509  0.44445263  1.0
  Ti  Ti3118  1  0.29304373  0.74584176  0.44445263  1.0
  Ti  Ti3119  1  0.29304373  0.91250843  0.44445263  1.0
  Ti  Ti3120  1  0.37637706  0.07917509  0.44445263  1.0
  Ti  Ti3121  1  0.37637706  0.24584176  0.44445263  1.0
  Ti  Ti3122  1  0.37637706  0.41250843  0.44445263  1.0
  Ti  Ti3123  1  0.37637706  0.57917509  0.44445263  1.0
  Ti  Ti3124  1  0.37637706  0.74584176  0.44445263  1.0
  Ti  Ti3125  1  0.37637706  0.91250843  0.44445263  1.0
  Ti  Ti3126  1  0.45971039  0.07917509  0.44445263  1.0
  Ti  Ti3127  1  0.45971039  0.24584176  0.44445263  1.0
  Ti  Ti3128  1  0.45971039  0.41250843  0.44445263  1.0
  Ti  Ti3129  1  0.45971039  0.57917509  0.44445263  1.0
  Ti  Ti3130  1  0.45971039  0.74584176  0.44445263  1.0
  Ti  Ti3131  1  0.45971039  0.91250843  0.44445263  1.0
  Ti  Ti3132  1  0.54304373  0.07917509  0.44445263  1.0
  Ti  Ti3133  1  0.54304373  0.24584176  0.44445263  1.0
  Ti  Ti3134  1  0.54304373  0.41250843  0.44445263  1.0
  Ti  Ti3135  1  0.54304373  0.57917509  0.44445263  1.0
  Ti  Ti3136  1  0.54304373  0.74584176  0.44445263  1.0
  Ti  Ti3137  1  0.54304373  0.91250843  0.44445263  1.0
  Ti  Ti3138  1  0.62637706  0.07917509  0.44445263  1.0
  Ti  Ti3139  1  0.62637706  0.24584176  0.44445263  1.0
  Ti  Ti3140  1  0.62637706  0.41250843  0.44445263  1.0
  Ti  Ti3141  1  0.62637706  0.57917509  0.44445263  1.0
  Ti  Ti3142  1  0.62637706  0.74584176  0.44445263  1.0
  Ti  Ti3143  1  0.62637706  0.91250843  0.44445263  1.0
  Ti  Ti3144  1  0.70971039  0.07917509  0.44445263  1.0
  Ti  Ti3145  1  0.70971039  0.24584176  0.44445263  1.0
  Ti  Ti3146  1  0.70971039  0.41250843  0.44445263  1.0
  Ti  Ti3147  1  0.70971039  0.57917509  0.44445263  1.0
  Ti  Ti3148  1  0.70971039  0.74584176  0.44445263  1.0
  Ti  Ti3149  1  0.70971039  0.91250843  0.44445263  1.0
  Ti  Ti3150  1  0.79304373  0.07917509  0.44445263  1.0
  Ti  Ti3151  1  0.79304373  0.24584176  0.44445263  1.0
  Ti  Ti3152  1  0.79304373  0.41250843  0.44445263  1.0
  Ti  Ti3153  1  0.79304373  0.57917509  0.44445263  1.0
  Ti  Ti3154  1  0.79304373  0.74584176  0.44445263  1.0
  Ti  Ti3155  1  0.79304373  0.91250843  0.44445263  1.0
  Ti  Ti3156  1  0.87637706  0.07917509  0.44445263  1.0
  Ti  Ti3157  1  0.87637706  0.24584176  0.44445263  1.0
  Ti  Ti3158  1  0.87637706  0.41250843  0.44445263  1.0
  Ti  Ti3159  1  0.87637706  0.57917509  0.44445263  1.0
  Ti  Ti3160  1  0.87637706  0.74584176  0.44445263  1.0
  Ti  Ti3161  1  0.87637706  0.91250843  0.44445263  1.0
  Ti  Ti3162  1  0.95971039  0.07917509  0.44445263  1.0
  Ti  Ti3163  1  0.95971039  0.24584176  0.44445263  1.0
  Ti  Ti3164  1  0.95971039  0.41250843  0.44445263  1.0
  Ti  Ti3165  1  0.95971039  0.57917509  0.44445263  1.0
  Ti  Ti3166  1  0.95971039  0.74584176  0.44445263  1.0
  Ti  Ti3167  1  0.95971039  0.91250843  0.44445263  1.0
  Ti  Ti3168  1  0.04923689  0.06319001  0.55433688  1.0
  Ti  Ti3169  1  0.04923689  0.22985668  0.55433688  1.0
  Ti  Ti3170  1  0.04923689  0.39652334  0.55433688  1.0
  Ti  Ti3171  1  0.04923689  0.56319001  0.55433688  1.0
  Ti  Ti3172  1  0.04923689  0.72985668  0.55433688  1.0
  Ti  Ti3173  1  0.04923689  0.89652334  0.55433688  1.0
  Ti  Ti3174  1  0.13257023  0.06319001  0.55433688  1.0
  Ti  Ti3175  1  0.13257023  0.22985668  0.55433688  1.0
  Ti  Ti3176  1  0.13257023  0.39652334  0.55433688  1.0
  Ti  Ti3177  1  0.13257023  0.56319001  0.55433688  1.0
  Ti  Ti3178  1  0.13257023  0.72985668  0.55433688  1.0
  Ti  Ti3179  1  0.13257023  0.89652334  0.55433688  1.0
  Ti  Ti3180  1  0.21590356  0.06319001  0.55433688  1.0
  Ti  Ti3181  1  0.21590356  0.22985668  0.55433688  1.0
  Ti  Ti3182  1  0.21590356  0.39652334  0.55433688  1.0
  Ti  Ti3183  1  0.21590356  0.56319001  0.55433688  1.0
  Ti  Ti3184  1  0.21590356  0.72985668  0.55433688  1.0
  Ti  Ti3185  1  0.21590356  0.89652334  0.55433688  1.0
  Ti  Ti3186  1  0.29923689  0.06319001  0.55433688  1.0
  Ti  Ti3187  1  0.29923689  0.22985668  0.55433688  1.0
  Ti  Ti3188  1  0.29923689  0.39652334  0.55433688  1.0
  Ti  Ti3189  1  0.29923689  0.56319001  0.55433688  1.0
  Ti  Ti3190  1  0.29923689  0.72985668  0.55433688  1.0
  Ti  Ti3191  1  0.29923689  0.89652334  0.55433688  1.0
  Ti  Ti3192  1  0.38257023  0.06319001  0.55433688  1.0
  Ti  Ti3193  1  0.38257023  0.22985668  0.55433688  1.0
  Ti  Ti3194  1  0.38257023  0.39652334  0.55433688  1.0
  Ti  Ti3195  1  0.38257023  0.56319001  0.55433688  1.0
  Ti  Ti3196  1  0.38257023  0.72985668  0.55433688  1.0
  Ti  Ti3197  1  0.38257023  0.89652334  0.55433688  1.0
  Ti  Ti3198  1  0.46590356  0.06319001  0.55433688  1.0
  Ti  Ti3199  1  0.46590356  0.22985668  0.55433688  1.0
  Ti  Ti3200  1  0.46590356  0.39652334  0.55433688  1.0
  Ti  Ti3201  1  0.46590356  0.56319001  0.55433688  1.0
  Ti  Ti3202  1  0.46590356  0.72985668  0.55433688  1.0
  Ti  Ti3203  1  0.46590356  0.89652334  0.55433688  1.0
  Ti  Ti3204  1  0.54923689  0.06319001  0.55433688  1.0
  Ti  Ti3205  1  0.54923689  0.22985668  0.55433688  1.0
  Ti  Ti3206  1  0.54923689  0.39652334  0.55433688  1.0
  Ti  Ti3207  1  0.54923689  0.56319001  0.55433688  1.0
  Ti  Ti3208  1  0.54923689  0.72985668  0.55433688  1.0
  Ti  Ti3209  1  0.54923689  0.89652334  0.55433688  1.0
  Ti  Ti3210  1  0.63257023  0.06319001  0.55433688  1.0
  Ti  Ti3211  1  0.63257023  0.22985668  0.55433688  1.0
  Ti  Ti3212  1  0.63257023  0.39652334  0.55433688  1.0
  Ti  Ti3213  1  0.63257023  0.56319001  0.55433688  1.0
  Ti  Ti3214  1  0.63257023  0.72985668  0.55433688  1.0
  Ti  Ti3215  1  0.63257023  0.89652334  0.55433688  1.0
  Ti  Ti3216  1  0.71590356  0.06319001  0.55433688  1.0
  Ti  Ti3217  1  0.71590356  0.22985668  0.55433688  1.0
  Ti  Ti3218  1  0.71590356  0.39652334  0.55433688  1.0
  Ti  Ti3219  1  0.71590356  0.56319001  0.55433688  1.0
  Ti  Ti3220  1  0.71590356  0.72985668  0.55433688  1.0
  Ti  Ti3221  1  0.71590356  0.89652334  0.55433688  1.0
  Ti  Ti3222  1  0.79923689  0.06319001  0.55433688  1.0
  Ti  Ti3223  1  0.79923689  0.22985668  0.55433688  1.0
  Ti  Ti3224  1  0.79923689  0.39652334  0.55433688  1.0
  Ti  Ti3225  1  0.79923689  0.56319001  0.55433688  1.0
  Ti  Ti3226  1  0.79923689  0.72985668  0.55433688  1.0
  Ti  Ti3227  1  0.79923689  0.89652334  0.55433688  1.0
  Ti  Ti3228  1  0.88257023  0.06319001  0.55433688  1.0
  Ti  Ti3229  1  0.88257023  0.22985668  0.55433688  1.0
  Ti  Ti3230  1  0.88257023  0.39652334  0.55433688  1.0
  Ti  Ti3231  1  0.88257023  0.56319001  0.55433688  1.0
  Ti  Ti3232  1  0.88257023  0.72985668  0.55433688  1.0
  Ti  Ti3233  1  0.88257023  0.89652334  0.55433688  1.0
  Ti  Ti3234  1  0.96590356  0.06319001  0.55433688  1.0
  Ti  Ti3235  1  0.96590356  0.22985668  0.55433688  1.0
  Ti  Ti3236  1  0.96590356  0.39652334  0.55433688  1.0
  Ti  Ti3237  1  0.96590356  0.56319001  0.55433688  1.0
  Ti  Ti3238  1  0.96590356  0.72985668  0.55433688  1.0
  Ti  Ti3239  1  0.96590356  0.89652334  0.55433688  1.0
  Ti  Ti3240  1  0.02542737  0.05128525  0.62576545  1.0
  Ti  Ti3241  1  0.02542737  0.21795191  0.62576545  1.0
  Ti  Ti3242  1  0.02542737  0.38461858  0.62576545  1.0
  Ti  Ti3243  1  0.02542737  0.55128525  0.62576545  1.0
  Ti  Ti3244  1  0.02542737  0.71795191  0.62576545  1.0
  Ti  Ti3245  1  0.02542737  0.88461858  0.62576545  1.0
  Ti  Ti3246  1  0.10876070  0.05128525  0.62576545  1.0
  Ti  Ti3247  1  0.10876070  0.21795191  0.62576545  1.0
  Ti  Ti3248  1  0.10876070  0.38461858  0.62576545  1.0
  Ti  Ti3249  1  0.10876070  0.55128525  0.62576545  1.0
  Ti  Ti3250  1  0.10876070  0.71795191  0.62576545  1.0
  Ti  Ti3251  1  0.10876070  0.88461858  0.62576545  1.0
  Ti  Ti3252  1  0.19209404  0.05128525  0.62576545  1.0
  Ti  Ti3253  1  0.19209404  0.21795191  0.62576545  1.0
  Ti  Ti3254  1  0.19209404  0.38461858  0.62576545  1.0
  Ti  Ti3255  1  0.19209404  0.55128525  0.62576545  1.0
  Ti  Ti3256  1  0.19209404  0.71795191  0.62576545  1.0
  Ti  Ti3257  1  0.19209404  0.88461858  0.62576545  1.0
  Ti  Ti3258  1  0.27542737  0.05128525  0.62576545  1.0
  Ti  Ti3259  1  0.27542737  0.21795191  0.62576545  1.0
  Ti  Ti3260  1  0.27542737  0.38461858  0.62576545  1.0
  Ti  Ti3261  1  0.27542737  0.55128525  0.62576545  1.0
  Ti  Ti3262  1  0.27542737  0.71795191  0.62576545  1.0
  Ti  Ti3263  1  0.27542737  0.88461858  0.62576545  1.0
  Ti  Ti3264  1  0.35876070  0.05128525  0.62576545  1.0
  Ti  Ti3265  1  0.35876070  0.21795191  0.62576545  1.0
  Ti  Ti3266  1  0.35876070  0.38461858  0.62576545  1.0
  Ti  Ti3267  1  0.35876070  0.55128525  0.62576545  1.0
  Ti  Ti3268  1  0.35876070  0.71795191  0.62576545  1.0
  Ti  Ti3269  1  0.35876070  0.88461858  0.62576545  1.0
  Ti  Ti3270  1  0.44209404  0.05128525  0.62576545  1.0
  Ti  Ti3271  1  0.44209404  0.21795191  0.62576545  1.0
  Ti  Ti3272  1  0.44209404  0.38461858  0.62576545  1.0
  Ti  Ti3273  1  0.44209404  0.55128525  0.62576545  1.0
  Ti  Ti3274  1  0.44209404  0.71795191  0.62576545  1.0
  Ti  Ti3275  1  0.44209404  0.88461858  0.62576545  1.0
  Ti  Ti3276  1  0.52542737  0.05128525  0.62576545  1.0
  Ti  Ti3277  1  0.52542737  0.21795191  0.62576545  1.0
  Ti  Ti3278  1  0.52542737  0.38461858  0.62576545  1.0
  Ti  Ti3279  1  0.52542737  0.55128525  0.62576545  1.0
  Ti  Ti3280  1  0.52542737  0.71795191  0.62576545  1.0
  Ti  Ti3281  1  0.52542737  0.88461858  0.62576545  1.0
  Ti  Ti3282  1  0.60876070  0.05128525  0.62576545  1.0
  Ti  Ti3283  1  0.60876070  0.21795191  0.62576545  1.0
  Ti  Ti3284  1  0.60876070  0.38461858  0.62576545  1.0
  Ti  Ti3285  1  0.60876070  0.55128525  0.62576545  1.0
  Ti  Ti3286  1  0.60876070  0.71795191  0.62576545  1.0
  Ti  Ti3287  1  0.60876070  0.88461858  0.62576545  1.0
  Ti  Ti3288  1  0.69209404  0.05128525  0.62576545  1.0
  Ti  Ti3289  1  0.69209404  0.21795191  0.62576545  1.0
  Ti  Ti3290  1  0.69209404  0.38461858  0.62576545  1.0
  Ti  Ti3291  1  0.69209404  0.55128525  0.62576545  1.0
  Ti  Ti3292  1  0.69209404  0.71795191  0.62576545  1.0
  Ti  Ti3293  1  0.69209404  0.88461858  0.62576545  1.0
  Ti  Ti3294  1  0.77542737  0.05128525  0.62576545  1.0
  Ti  Ti3295  1  0.77542737  0.21795191  0.62576545  1.0
  Ti  Ti3296  1  0.77542737  0.38461858  0.62576545  1.0
  Ti  Ti3297  1  0.77542737  0.55128525  0.62576545  1.0
  Ti  Ti3298  1  0.77542737  0.71795191  0.62576545  1.0
  Ti  Ti3299  1  0.77542737  0.88461858  0.62576545  1.0
  Ti  Ti3300  1  0.85876070  0.05128525  0.62576545  1.0
  Ti  Ti3301  1  0.85876070  0.21795191  0.62576545  1.0
  Ti  Ti3302  1  0.85876070  0.38461858  0.62576545  1.0
  Ti  Ti3303  1  0.85876070  0.55128525  0.62576545  1.0
  Ti  Ti3304  1  0.85876070  0.71795191  0.62576545  1.0
  Ti  Ti3305  1  0.85876070  0.88461858  0.62576545  1.0
  Ti  Ti3306  1  0.94209404  0.05128525  0.62576545  1.0
  Ti  Ti3307  1  0.94209404  0.21795191  0.62576545  1.0
  Ti  Ti3308  1  0.94209404  0.38461858  0.62576545  1.0
  Ti  Ti3309  1  0.94209404  0.55128525  0.62576545  1.0
  Ti  Ti3310  1  0.94209404  0.71795191  0.62576545  1.0
  Ti  Ti3311  1  0.94209404  0.88461858  0.62576545  1.0
  Ti  Ti3312  1  0.05448653  0.13713754  0.53279182  1.0
  Ti  Ti3313  1  0.05448653  0.30380421  0.53279182  1.0
  Ti  Ti3314  1  0.05448653  0.47047087  0.53279182  1.0
  Ti  Ti3315  1  0.05448653  0.63713754  0.53279182  1.0
  Ti  Ti3316  1  0.05448653  0.80380420  0.53279182  1.0
  Ti  Ti3317  1  0.05448653  0.97047087  0.53279182  1.0
  Ti  Ti3318  1  0.13781987  0.13713754  0.53279182  1.0
  Ti  Ti3319  1  0.13781987  0.30380421  0.53279182  1.0
  Ti  Ti3320  1  0.13781987  0.47047087  0.53279182  1.0
  Ti  Ti3321  1  0.13781987  0.63713754  0.53279182  1.0
  Ti  Ti3322  1  0.13781987  0.80380420  0.53279182  1.0
  Ti  Ti3323  1  0.13781987  0.97047087  0.53279182  1.0
  Ti  Ti3324  1  0.22115320  0.13713754  0.53279182  1.0
  Ti  Ti3325  1  0.22115320  0.30380421  0.53279182  1.0
  Ti  Ti3326  1  0.22115320  0.47047087  0.53279182  1.0
  Ti  Ti3327  1  0.22115320  0.63713754  0.53279182  1.0
  Ti  Ti3328  1  0.22115320  0.80380420  0.53279182  1.0
  Ti  Ti3329  1  0.22115320  0.97047087  0.53279182  1.0
  Ti  Ti3330  1  0.30448653  0.13713754  0.53279182  1.0
  Ti  Ti3331  1  0.30448653  0.30380421  0.53279182  1.0
  Ti  Ti3332  1  0.30448653  0.47047087  0.53279182  1.0
  Ti  Ti3333  1  0.30448653  0.63713754  0.53279182  1.0
  Ti  Ti3334  1  0.30448653  0.80380420  0.53279182  1.0
  Ti  Ti3335  1  0.30448653  0.97047087  0.53279182  1.0
  Ti  Ti3336  1  0.38781987  0.13713754  0.53279182  1.0
  Ti  Ti3337  1  0.38781987  0.30380421  0.53279182  1.0
  Ti  Ti3338  1  0.38781987  0.47047087  0.53279182  1.0
  Ti  Ti3339  1  0.38781987  0.63713754  0.53279182  1.0
  Ti  Ti3340  1  0.38781987  0.80380420  0.53279182  1.0
  Ti  Ti3341  1  0.38781987  0.97047087  0.53279182  1.0
  Ti  Ti3342  1  0.47115320  0.13713754  0.53279182  1.0
  Ti  Ti3343  1  0.47115320  0.30380421  0.53279182  1.0
  Ti  Ti3344  1  0.47115320  0.47047087  0.53279182  1.0
  Ti  Ti3345  1  0.47115320  0.63713754  0.53279182  1.0
  Ti  Ti3346  1  0.47115320  0.80380420  0.53279182  1.0
  Ti  Ti3347  1  0.47115320  0.97047087  0.53279182  1.0
  Ti  Ti3348  1  0.55448653  0.13713754  0.53279182  1.0
  Ti  Ti3349  1  0.55448653  0.30380421  0.53279182  1.0
  Ti  Ti3350  1  0.55448653  0.47047087  0.53279182  1.0
  Ti  Ti3351  1  0.55448653  0.63713754  0.53279182  1.0
  Ti  Ti3352  1  0.55448653  0.80380420  0.53279182  1.0
  Ti  Ti3353  1  0.55448653  0.97047087  0.53279182  1.0
  Ti  Ti3354  1  0.63781987  0.13713754  0.53279182  1.0
  Ti  Ti3355  1  0.63781987  0.30380421  0.53279182  1.0
  Ti  Ti3356  1  0.63781987  0.47047087  0.53279182  1.0
  Ti  Ti3357  1  0.63781987  0.63713754  0.53279182  1.0
  Ti  Ti3358  1  0.63781987  0.80380420  0.53279182  1.0
  Ti  Ti3359  1  0.63781987  0.97047087  0.53279182  1.0
  Ti  Ti3360  1  0.72115320  0.13713754  0.53279182  1.0
  Ti  Ti3361  1  0.72115320  0.30380421  0.53279182  1.0
  Ti  Ti3362  1  0.72115320  0.47047087  0.53279182  1.0
  Ti  Ti3363  1  0.72115320  0.63713754  0.53279182  1.0
  Ti  Ti3364  1  0.72115320  0.80380420  0.53279182  1.0
  Ti  Ti3365  1  0.72115320  0.97047087  0.53279182  1.0
  Ti  Ti3366  1  0.80448653  0.13713754  0.53279182  1.0
  Ti  Ti3367  1  0.80448653  0.30380421  0.53279182  1.0
  Ti  Ti3368  1  0.80448653  0.47047087  0.53279182  1.0
  Ti  Ti3369  1  0.80448653  0.63713754  0.53279182  1.0
  Ti  Ti3370  1  0.80448653  0.80380420  0.53279182  1.0
  Ti  Ti3371  1  0.80448653  0.97047087  0.53279182  1.0
  Ti  Ti3372  1  0.88781987  0.13713754  0.53279182  1.0
  Ti  Ti3373  1  0.88781987  0.30380421  0.53279182  1.0
  Ti  Ti3374  1  0.88781987  0.47047087  0.53279182  1.0
  Ti  Ti3375  1  0.88781987  0.63713754  0.53279182  1.0
  Ti  Ti3376  1  0.88781987  0.80380420  0.53279182  1.0
  Ti  Ti3377  1  0.88781987  0.97047087  0.53279182  1.0
  Ti  Ti3378  1  0.97115320  0.13713754  0.53279182  1.0
  Ti  Ti3379  1  0.97115320  0.30380421  0.53279182  1.0
  Ti  Ti3380  1  0.97115320  0.47047087  0.53279182  1.0
  Ti  Ti3381  1  0.97115320  0.63713754  0.53279182  1.0
  Ti  Ti3382  1  0.97115320  0.80380420  0.53279182  1.0
  Ti  Ti3383  1  0.97115320  0.97047087  0.53279182  1.0
  Ti  Ti3384  1  0.03067701  0.12523278  0.60422039  1.0
  Ti  Ti3385  1  0.03067701  0.29189944  0.60422039  1.0
  Ti  Ti3386  1  0.03067701  0.45856611  0.60422039  1.0
  Ti  Ti3387  1  0.03067701  0.62523278  0.60422039  1.0
  Ti  Ti3388  1  0.03067701  0.79189944  0.60422039  1.0
  Ti  Ti3389  1  0.03067701  0.95856611  0.60422039  1.0
  Ti  Ti3390  1  0.11401034  0.12523278  0.60422039  1.0
  Ti  Ti3391  1  0.11401034  0.29189944  0.60422039  1.0
  Ti  Ti3392  1  0.11401034  0.45856611  0.60422039  1.0
  Ti  Ti3393  1  0.11401034  0.62523278  0.60422039  1.0
  Ti  Ti3394  1  0.11401034  0.79189944  0.60422039  1.0
  Ti  Ti3395  1  0.11401034  0.95856611  0.60422039  1.0
  Ti  Ti3396  1  0.19734368  0.12523278  0.60422039  1.0
  Ti  Ti3397  1  0.19734368  0.29189944  0.60422039  1.0
  Ti  Ti3398  1  0.19734368  0.45856611  0.60422039  1.0
  Ti  Ti3399  1  0.19734368  0.62523278  0.60422039  1.0
  Ti  Ti3400  1  0.19734368  0.79189944  0.60422039  1.0
  Ti  Ti3401  1  0.19734368  0.95856611  0.60422039  1.0
  Ti  Ti3402  1  0.28067701  0.12523278  0.60422039  1.0
  Ti  Ti3403  1  0.28067701  0.29189944  0.60422039  1.0
  Ti  Ti3404  1  0.28067701  0.45856611  0.60422039  1.0
  Ti  Ti3405  1  0.28067701  0.62523278  0.60422039  1.0
  Ti  Ti3406  1  0.28067701  0.79189944  0.60422039  1.0
  Ti  Ti3407  1  0.28067701  0.95856611  0.60422039  1.0
  Ti  Ti3408  1  0.36401034  0.12523278  0.60422039  1.0
  Ti  Ti3409  1  0.36401034  0.29189944  0.60422039  1.0
  Ti  Ti3410  1  0.36401034  0.45856611  0.60422039  1.0
  Ti  Ti3411  1  0.36401034  0.62523278  0.60422039  1.0
  Ti  Ti3412  1  0.36401034  0.79189944  0.60422039  1.0
  Ti  Ti3413  1  0.36401034  0.95856611  0.60422039  1.0
  Ti  Ti3414  1  0.44734368  0.12523278  0.60422039  1.0
  Ti  Ti3415  1  0.44734368  0.29189944  0.60422039  1.0
  Ti  Ti3416  1  0.44734368  0.45856611  0.60422039  1.0
  Ti  Ti3417  1  0.44734368  0.62523278  0.60422039  1.0
  Ti  Ti3418  1  0.44734368  0.79189944  0.60422039  1.0
  Ti  Ti3419  1  0.44734368  0.95856611  0.60422039  1.0
  Ti  Ti3420  1  0.53067701  0.12523278  0.60422039  1.0
  Ti  Ti3421  1  0.53067701  0.29189944  0.60422039  1.0
  Ti  Ti3422  1  0.53067701  0.45856611  0.60422039  1.0
  Ti  Ti3423  1  0.53067701  0.62523278  0.60422039  1.0
  Ti  Ti3424  1  0.53067701  0.79189944  0.60422039  1.0
  Ti  Ti3425  1  0.53067701  0.95856611  0.60422039  1.0
  Ti  Ti3426  1  0.61401034  0.12523278  0.60422039  1.0
  Ti  Ti3427  1  0.61401034  0.29189944  0.60422039  1.0
  Ti  Ti3428  1  0.61401034  0.45856611  0.60422039  1.0
  Ti  Ti3429  1  0.61401034  0.62523278  0.60422039  1.0
  Ti  Ti3430  1  0.61401034  0.79189944  0.60422039  1.0
  Ti  Ti3431  1  0.61401034  0.95856611  0.60422039  1.0
  Ti  Ti3432  1  0.69734368  0.12523278  0.60422039  1.0
  Ti  Ti3433  1  0.69734368  0.29189944  0.60422039  1.0
  Ti  Ti3434  1  0.69734368  0.45856611  0.60422039  1.0
  Ti  Ti3435  1  0.69734368  0.62523278  0.60422039  1.0
  Ti  Ti3436  1  0.69734368  0.79189944  0.60422039  1.0
  Ti  Ti3437  1  0.69734368  0.95856611  0.60422039  1.0
  Ti  Ti3438  1  0.78067701  0.12523278  0.60422039  1.0
  Ti  Ti3439  1  0.78067701  0.29189944  0.60422039  1.0
  Ti  Ti3440  1  0.78067701  0.45856611  0.60422039  1.0
  Ti  Ti3441  1  0.78067701  0.62523278  0.60422039  1.0
  Ti  Ti3442  1  0.78067701  0.79189944  0.60422039  1.0
  Ti  Ti3443  1  0.78067701  0.95856611  0.60422039  1.0
  Ti  Ti3444  1  0.86401034  0.12523278  0.60422039  1.0
  Ti  Ti3445  1  0.86401034  0.29189944  0.60422039  1.0
  Ti  Ti3446  1  0.86401034  0.45856611  0.60422039  1.0
  Ti  Ti3447  1  0.86401034  0.62523278  0.60422039  1.0
  Ti  Ti3448  1  0.86401034  0.79189944  0.60422039  1.0
  Ti  Ti3449  1  0.86401034  0.95856611  0.60422039  1.0
  Ti  Ti3450  1  0.94734368  0.12523278  0.60422039  1.0
  Ti  Ti3451  1  0.94734368  0.29189944  0.60422039  1.0
  Ti  Ti3452  1  0.94734368  0.45856611  0.60422039  1.0
  Ti  Ti3453  1  0.94734368  0.62523278  0.60422039  1.0
  Ti  Ti3454  1  0.94734368  0.79189944  0.60422039  1.0
  Ti  Ti3455  1  0.94734368  0.95856611  0.60422039  1.0
  Ti  Ti3456  1  0.05367875  0.01694414  0.54319004  1.0
  Ti  Ti3457  1  0.05367875  0.18361080  0.54319004  1.0
  Ti  Ti3458  1  0.05367875  0.35027747  0.54319004  1.0
  Ti  Ti3459  1  0.05367875  0.51694414  0.54319004  1.0
  Ti  Ti3460  1  0.05367875  0.68361080  0.54319004  1.0
  Ti  Ti3461  1  0.05367875  0.85027747  0.54319004  1.0
  Ti  Ti3462  1  0.13701208  0.01694414  0.54319004  1.0
  Ti  Ti3463  1  0.13701208  0.18361080  0.54319004  1.0
  Ti  Ti3464  1  0.13701208  0.35027747  0.54319004  1.0
  Ti  Ti3465  1  0.13701208  0.51694414  0.54319004  1.0
  Ti  Ti3466  1  0.13701208  0.68361080  0.54319004  1.0
  Ti  Ti3467  1  0.13701208  0.85027747  0.54319004  1.0
  Ti  Ti3468  1  0.22034541  0.01694414  0.54319004  1.0
  Ti  Ti3469  1  0.22034541  0.18361080  0.54319004  1.0
  Ti  Ti3470  1  0.22034541  0.35027747  0.54319004  1.0
  Ti  Ti3471  1  0.22034541  0.51694414  0.54319004  1.0
  Ti  Ti3472  1  0.22034541  0.68361080  0.54319004  1.0
  Ti  Ti3473  1  0.22034541  0.85027747  0.54319004  1.0
  Ti  Ti3474  1  0.30367875  0.01694414  0.54319004  1.0
  Ti  Ti3475  1  0.30367875  0.18361080  0.54319004  1.0
  Ti  Ti3476  1  0.30367875  0.35027747  0.54319004  1.0
  Ti  Ti3477  1  0.30367875  0.51694414  0.54319004  1.0
  Ti  Ti3478  1  0.30367875  0.68361080  0.54319004  1.0
  Ti  Ti3479  1  0.30367875  0.85027747  0.54319004  1.0
  Ti  Ti3480  1  0.38701208  0.01694414  0.54319004  1.0
  Ti  Ti3481  1  0.38701208  0.18361080  0.54319004  1.0
  Ti  Ti3482  1  0.38701208  0.35027747  0.54319004  1.0
  Ti  Ti3483  1  0.38701208  0.51694414  0.54319004  1.0
  Ti  Ti3484  1  0.38701208  0.68361080  0.54319004  1.0
  Ti  Ti3485  1  0.38701208  0.85027747  0.54319004  1.0
  Ti  Ti3486  1  0.47034541  0.01694414  0.54319004  1.0
  Ti  Ti3487  1  0.47034541  0.18361080  0.54319004  1.0
  Ti  Ti3488  1  0.47034541  0.35027747  0.54319004  1.0
  Ti  Ti3489  1  0.47034541  0.51694414  0.54319004  1.0
  Ti  Ti3490  1  0.47034541  0.68361080  0.54319004  1.0
  Ti  Ti3491  1  0.47034541  0.85027747  0.54319004  1.0
  Ti  Ti3492  1  0.55367875  0.01694414  0.54319004  1.0
  Ti  Ti3493  1  0.55367875  0.18361080  0.54319004  1.0
  Ti  Ti3494  1  0.55367875  0.35027747  0.54319004  1.0
  Ti  Ti3495  1  0.55367875  0.51694414  0.54319004  1.0
  Ti  Ti3496  1  0.55367875  0.68361080  0.54319004  1.0
  Ti  Ti3497  1  0.55367875  0.85027747  0.54319004  1.0
  Ti  Ti3498  1  0.63701208  0.01694414  0.54319004  1.0
  Ti  Ti3499  1  0.63701208  0.18361080  0.54319004  1.0
  Ti  Ti3500  1  0.63701208  0.35027747  0.54319004  1.0
  Ti  Ti3501  1  0.63701208  0.51694414  0.54319004  1.0
  Ti  Ti3502  1  0.63701208  0.68361080  0.54319004  1.0
  Ti  Ti3503  1  0.63701208  0.85027747  0.54319004  1.0
  Ti  Ti3504  1  0.72034541  0.01694414  0.54319004  1.0
  Ti  Ti3505  1  0.72034541  0.18361080  0.54319004  1.0
  Ti  Ti3506  1  0.72034541  0.35027747  0.54319004  1.0
  Ti  Ti3507  1  0.72034541  0.51694414  0.54319004  1.0
  Ti  Ti3508  1  0.72034541  0.68361080  0.54319004  1.0
  Ti  Ti3509  1  0.72034541  0.85027747  0.54319004  1.0
  Ti  Ti3510  1  0.80367875  0.01694414  0.54319004  1.0
  Ti  Ti3511  1  0.80367875  0.18361080  0.54319004  1.0
  Ti  Ti3512  1  0.80367875  0.35027747  0.54319004  1.0
  Ti  Ti3513  1  0.80367875  0.51694414  0.54319004  1.0
  Ti  Ti3514  1  0.80367875  0.68361080  0.54319004  1.0
  Ti  Ti3515  1  0.80367875  0.85027747  0.54319004  1.0
  Ti  Ti3516  1  0.88701208  0.01694414  0.54319004  1.0
  Ti  Ti3517  1  0.88701208  0.18361080  0.54319004  1.0
  Ti  Ti3518  1  0.88701208  0.35027747  0.54319004  1.0
  Ti  Ti3519  1  0.88701208  0.51694414  0.54319004  1.0
  Ti  Ti3520  1  0.88701208  0.68361080  0.54319004  1.0
  Ti  Ti3521  1  0.88701208  0.85027747  0.54319004  1.0
  Ti  Ti3522  1  0.97034541  0.01694414  0.54319004  1.0
  Ti  Ti3523  1  0.97034541  0.18361080  0.54319004  1.0
  Ti  Ti3524  1  0.97034541  0.35027747  0.54319004  1.0
  Ti  Ti3525  1  0.97034541  0.51694414  0.54319004  1.0
  Ti  Ti3526  1  0.97034541  0.68361080  0.54319004  1.0
  Ti  Ti3527  1  0.97034541  0.85027747  0.54319004  1.0
  Ti  Ti3528  1  0.02986922  0.00503937  0.61461861  1.0
  Ti  Ti3529  1  0.02986922  0.17170604  0.61461861  1.0
  Ti  Ti3530  1  0.02986922  0.33837271  0.61461861  1.0
  Ti  Ti3531  1  0.02986922  0.50503937  0.61461861  1.0
  Ti  Ti3532  1  0.02986922  0.67170604  0.61461861  1.0
  Ti  Ti3533  1  0.02986922  0.83837271  0.61461861  1.0
  Ti  Ti3534  1  0.11320256  0.00503937  0.61461861  1.0
  Ti  Ti3535  1  0.11320256  0.17170604  0.61461861  1.0
  Ti  Ti3536  1  0.11320256  0.33837271  0.61461861  1.0
  Ti  Ti3537  1  0.11320256  0.50503937  0.61461861  1.0
  Ti  Ti3538  1  0.11320256  0.67170604  0.61461861  1.0
  Ti  Ti3539  1  0.11320256  0.83837271  0.61461861  1.0
  Ti  Ti3540  1  0.19653589  0.00503937  0.61461861  1.0
  Ti  Ti3541  1  0.19653589  0.17170604  0.61461861  1.0
  Ti  Ti3542  1  0.19653589  0.33837271  0.61461861  1.0
  Ti  Ti3543  1  0.19653589  0.50503937  0.61461861  1.0
  Ti  Ti3544  1  0.19653589  0.67170604  0.61461861  1.0
  Ti  Ti3545  1  0.19653589  0.83837271  0.61461861  1.0
  Ti  Ti3546  1  0.27986922  0.00503937  0.61461861  1.0
  Ti  Ti3547  1  0.27986922  0.17170604  0.61461861  1.0
  Ti  Ti3548  1  0.27986922  0.33837271  0.61461861  1.0
  Ti  Ti3549  1  0.27986922  0.50503937  0.61461861  1.0
  Ti  Ti3550  1  0.27986922  0.67170604  0.61461861  1.0
  Ti  Ti3551  1  0.27986922  0.83837271  0.61461861  1.0
  Ti  Ti3552  1  0.36320256  0.00503937  0.61461861  1.0
  Ti  Ti3553  1  0.36320256  0.17170604  0.61461861  1.0
  Ti  Ti3554  1  0.36320256  0.33837271  0.61461861  1.0
  Ti  Ti3555  1  0.36320256  0.50503937  0.61461861  1.0
  Ti  Ti3556  1  0.36320256  0.67170604  0.61461861  1.0
  Ti  Ti3557  1  0.36320256  0.83837271  0.61461861  1.0
  Ti  Ti3558  1  0.44653589  0.00503937  0.61461861  1.0
  Ti  Ti3559  1  0.44653589  0.17170604  0.61461861  1.0
  Ti  Ti3560  1  0.44653589  0.33837271  0.61461861  1.0
  Ti  Ti3561  1  0.44653589  0.50503937  0.61461861  1.0
  Ti  Ti3562  1  0.44653589  0.67170604  0.61461861  1.0
  Ti  Ti3563  1  0.44653589  0.83837271  0.61461861  1.0
  Ti  Ti3564  1  0.52986922  0.00503937  0.61461861  1.0
  Ti  Ti3565  1  0.52986922  0.17170604  0.61461861  1.0
  Ti  Ti3566  1  0.52986922  0.33837271  0.61461861  1.0
  Ti  Ti3567  1  0.52986922  0.50503937  0.61461861  1.0
  Ti  Ti3568  1  0.52986922  0.67170604  0.61461861  1.0
  Ti  Ti3569  1  0.52986922  0.83837271  0.61461861  1.0
  Ti  Ti3570  1  0.61320256  0.00503937  0.61461861  1.0
  Ti  Ti3571  1  0.61320256  0.17170604  0.61461861  1.0
  Ti  Ti3572  1  0.61320256  0.33837271  0.61461861  1.0
  Ti  Ti3573  1  0.61320256  0.50503937  0.61461861  1.0
  Ti  Ti3574  1  0.61320256  0.67170604  0.61461861  1.0
  Ti  Ti3575  1  0.61320256  0.83837271  0.61461861  1.0
  Ti  Ti3576  1  0.69653589  0.00503937  0.61461861  1.0
  Ti  Ti3577  1  0.69653589  0.17170604  0.61461861  1.0
  Ti  Ti3578  1  0.69653589  0.33837271  0.61461861  1.0
  Ti  Ti3579  1  0.69653589  0.50503937  0.61461861  1.0
  Ti  Ti3580  1  0.69653589  0.67170604  0.61461861  1.0
  Ti  Ti3581  1  0.69653589  0.83837271  0.61461861  1.0
  Ti  Ti3582  1  0.77986922  0.00503937  0.61461861  1.0
  Ti  Ti3583  1  0.77986922  0.17170604  0.61461861  1.0
  Ti  Ti3584  1  0.77986922  0.33837271  0.61461861  1.0
  Ti  Ti3585  1  0.77986922  0.50503937  0.61461861  1.0
  Ti  Ti3586  1  0.77986922  0.67170604  0.61461861  1.0
  Ti  Ti3587  1  0.77986922  0.83837271  0.61461861  1.0
  Ti  Ti3588  1  0.86320256  0.00503937  0.61461861  1.0
  Ti  Ti3589  1  0.86320256  0.17170604  0.61461861  1.0
  Ti  Ti3590  1  0.86320256  0.33837271  0.61461861  1.0
  Ti  Ti3591  1  0.86320256  0.50503937  0.61461861  1.0
  Ti  Ti3592  1  0.86320256  0.67170604  0.61461861  1.0
  Ti  Ti3593  1  0.86320256  0.83837271  0.61461861  1.0
  Ti  Ti3594  1  0.94653589  0.00503937  0.61461861  1.0
  Ti  Ti3595  1  0.94653589  0.17170604  0.61461861  1.0
  Ti  Ti3596  1  0.94653589  0.33837271  0.61461861  1.0
  Ti  Ti3597  1  0.94653589  0.50503937  0.61461861  1.0
  Ti  Ti3598  1  0.94653589  0.67170604  0.61461861  1.0
  Ti  Ti3599  1  0.94653589  0.83837271  0.61461861  1.0
  Ti  Ti3600  1  0.01715493  0.11731143  0.52719284  1.0
  Ti  Ti3601  1  0.01715493  0.28397810  0.52719284  1.0
  Ti  Ti3602  1  0.01715493  0.45064477  0.52719284  1.0
  Ti  Ti3603  1  0.01715493  0.61731143  0.52719284  1.0
  Ti  Ti3604  1  0.01715493  0.78397810  0.52719284  1.0
  Ti  Ti3605  1  0.01715493  0.95064477  0.52719284  1.0
  Ti  Ti3606  1  0.10048826  0.11731143  0.52719284  1.0
  Ti  Ti3607  1  0.10048826  0.28397810  0.52719284  1.0
  Ti  Ti3608  1  0.10048826  0.45064477  0.52719284  1.0
  Ti  Ti3609  1  0.10048826  0.61731143  0.52719284  1.0
  Ti  Ti3610  1  0.10048826  0.78397810  0.52719284  1.0
  Ti  Ti3611  1  0.10048826  0.95064477  0.52719284  1.0
  Ti  Ti3612  1  0.18382159  0.11731143  0.52719284  1.0
  Ti  Ti3613  1  0.18382159  0.28397810  0.52719284  1.0
  Ti  Ti3614  1  0.18382159  0.45064477  0.52719284  1.0
  Ti  Ti3615  1  0.18382159  0.61731143  0.52719284  1.0
  Ti  Ti3616  1  0.18382159  0.78397810  0.52719284  1.0
  Ti  Ti3617  1  0.18382159  0.95064477  0.52719284  1.0
  Ti  Ti3618  1  0.26715493  0.11731143  0.52719284  1.0
  Ti  Ti3619  1  0.26715493  0.28397810  0.52719284  1.0
  Ti  Ti3620  1  0.26715493  0.45064477  0.52719284  1.0
  Ti  Ti3621  1  0.26715493  0.61731143  0.52719284  1.0
  Ti  Ti3622  1  0.26715493  0.78397810  0.52719284  1.0
  Ti  Ti3623  1  0.26715493  0.95064477  0.52719284  1.0
  Ti  Ti3624  1  0.35048826  0.11731143  0.52719284  1.0
  Ti  Ti3625  1  0.35048826  0.28397810  0.52719284  1.0
  Ti  Ti3626  1  0.35048826  0.45064477  0.52719284  1.0
  Ti  Ti3627  1  0.35048826  0.61731143  0.52719284  1.0
  Ti  Ti3628  1  0.35048826  0.78397810  0.52719284  1.0
  Ti  Ti3629  1  0.35048826  0.95064477  0.52719284  1.0
  Ti  Ti3630  1  0.43382159  0.11731143  0.52719284  1.0
  Ti  Ti3631  1  0.43382159  0.28397810  0.52719284  1.0
  Ti  Ti3632  1  0.43382159  0.45064477  0.52719284  1.0
  Ti  Ti3633  1  0.43382159  0.61731143  0.52719284  1.0
  Ti  Ti3634  1  0.43382159  0.78397810  0.52719284  1.0
  Ti  Ti3635  1  0.43382159  0.95064477  0.52719284  1.0
  Ti  Ti3636  1  0.51715493  0.11731143  0.52719284  1.0
  Ti  Ti3637  1  0.51715493  0.28397810  0.52719284  1.0
  Ti  Ti3638  1  0.51715493  0.45064477  0.52719284  1.0
  Ti  Ti3639  1  0.51715493  0.61731143  0.52719284  1.0
  Ti  Ti3640  1  0.51715493  0.78397810  0.52719284  1.0
  Ti  Ti3641  1  0.51715493  0.95064477  0.52719284  1.0
  Ti  Ti3642  1  0.60048826  0.11731143  0.52719284  1.0
  Ti  Ti3643  1  0.60048826  0.28397810  0.52719284  1.0
  Ti  Ti3644  1  0.60048826  0.45064477  0.52719284  1.0
  Ti  Ti3645  1  0.60048826  0.61731143  0.52719284  1.0
  Ti  Ti3646  1  0.60048826  0.78397810  0.52719284  1.0
  Ti  Ti3647  1  0.60048826  0.95064477  0.52719284  1.0
  Ti  Ti3648  1  0.68382159  0.11731143  0.52719284  1.0
  Ti  Ti3649  1  0.68382159  0.28397810  0.52719284  1.0
  Ti  Ti3650  1  0.68382159  0.45064477  0.52719284  1.0
  Ti  Ti3651  1  0.68382159  0.61731143  0.52719284  1.0
  Ti  Ti3652  1  0.68382159  0.78397810  0.52719284  1.0
  Ti  Ti3653  1  0.68382159  0.95064477  0.52719284  1.0
  Ti  Ti3654  1  0.76715493  0.11731143  0.52719284  1.0
  Ti  Ti3655  1  0.76715493  0.28397810  0.52719284  1.0
  Ti  Ti3656  1  0.76715493  0.45064477  0.52719284  1.0
  Ti  Ti3657  1  0.76715493  0.61731143  0.52719284  1.0
  Ti  Ti3658  1  0.76715493  0.78397810  0.52719284  1.0
  Ti  Ti3659  1  0.76715493  0.95064477  0.52719284  1.0
  Ti  Ti3660  1  0.85048826  0.11731143  0.52719284  1.0
  Ti  Ti3661  1  0.85048826  0.28397810  0.52719284  1.0
  Ti  Ti3662  1  0.85048826  0.45064477  0.52719284  1.0
  Ti  Ti3663  1  0.85048826  0.61731143  0.52719284  1.0
  Ti  Ti3664  1  0.85048826  0.78397810  0.52719284  1.0
  Ti  Ti3665  1  0.85048826  0.95064477  0.52719284  1.0
  Ti  Ti3666  1  0.93382159  0.11731143  0.52719284  1.0
  Ti  Ti3667  1  0.93382159  0.28397810  0.52719284  1.0
  Ti  Ti3668  1  0.93382159  0.45064477  0.52719284  1.0
  Ti  Ti3669  1  0.93382159  0.61731143  0.52719284  1.0
  Ti  Ti3670  1  0.93382159  0.78397810  0.52719284  1.0
  Ti  Ti3671  1  0.93382159  0.95064477  0.52719284  1.0
  Ti  Ti3672  1  0.07667874  0.10540667  0.59862141  1.0
  Ti  Ti3673  1  0.07667874  0.27207334  0.59862141  1.0
  Ti  Ti3674  1  0.07667874  0.43874000  0.59862141  1.0
  Ti  Ti3675  1  0.07667874  0.60540667  0.59862141  1.0
  Ti  Ti3676  1  0.07667874  0.77207334  0.59862141  1.0
  Ti  Ti3677  1  0.07667874  0.93874000  0.59862141  1.0
  Ti  Ti3678  1  0.16001207  0.10540667  0.59862141  1.0
  Ti  Ti3679  1  0.16001207  0.27207334  0.59862141  1.0
  Ti  Ti3680  1  0.16001207  0.43874000  0.59862141  1.0
  Ti  Ti3681  1  0.16001207  0.60540667  0.59862141  1.0
  Ti  Ti3682  1  0.16001207  0.77207334  0.59862141  1.0
  Ti  Ti3683  1  0.16001207  0.93874000  0.59862141  1.0
  Ti  Ti3684  1  0.24334540  0.10540667  0.59862141  1.0
  Ti  Ti3685  1  0.24334540  0.27207334  0.59862141  1.0
  Ti  Ti3686  1  0.24334540  0.43874000  0.59862141  1.0
  Ti  Ti3687  1  0.24334540  0.60540667  0.59862141  1.0
  Ti  Ti3688  1  0.24334540  0.77207334  0.59862141  1.0
  Ti  Ti3689  1  0.24334540  0.93874000  0.59862141  1.0
  Ti  Ti3690  1  0.32667874  0.10540667  0.59862141  1.0
  Ti  Ti3691  1  0.32667874  0.27207334  0.59862141  1.0
  Ti  Ti3692  1  0.32667874  0.43874000  0.59862141  1.0
  Ti  Ti3693  1  0.32667874  0.60540667  0.59862141  1.0
  Ti  Ti3694  1  0.32667874  0.77207334  0.59862141  1.0
  Ti  Ti3695  1  0.32667874  0.93874000  0.59862141  1.0
  Ti  Ti3696  1  0.41001207  0.10540667  0.59862141  1.0
  Ti  Ti3697  1  0.41001207  0.27207334  0.59862141  1.0
  Ti  Ti3698  1  0.41001207  0.43874000  0.59862141  1.0
  Ti  Ti3699  1  0.41001207  0.60540667  0.59862141  1.0
  Ti  Ti3700  1  0.41001207  0.77207334  0.59862141  1.0
  Ti  Ti3701  1  0.41001207  0.93874000  0.59862141  1.0
  Ti  Ti3702  1  0.49334540  0.10540667  0.59862141  1.0
  Ti  Ti3703  1  0.49334540  0.27207334  0.59862141  1.0
  Ti  Ti3704  1  0.49334540  0.43874000  0.59862141  1.0
  Ti  Ti3705  1  0.49334540  0.60540667  0.59862141  1.0
  Ti  Ti3706  1  0.49334540  0.77207334  0.59862141  1.0
  Ti  Ti3707  1  0.49334540  0.93874000  0.59862141  1.0
  Ti  Ti3708  1  0.57667874  0.10540667  0.59862141  1.0
  Ti  Ti3709  1  0.57667874  0.27207334  0.59862141  1.0
  Ti  Ti3710  1  0.57667874  0.43874000  0.59862141  1.0
  Ti  Ti3711  1  0.57667874  0.60540667  0.59862141  1.0
  Ti  Ti3712  1  0.57667874  0.77207334  0.59862141  1.0
  Ti  Ti3713  1  0.57667874  0.93874000  0.59862141  1.0
  Ti  Ti3714  1  0.66001207  0.10540667  0.59862141  1.0
  Ti  Ti3715  1  0.66001207  0.27207334  0.59862141  1.0
  Ti  Ti3716  1  0.66001207  0.43874000  0.59862141  1.0
  Ti  Ti3717  1  0.66001207  0.60540667  0.59862141  1.0
  Ti  Ti3718  1  0.66001207  0.77207334  0.59862141  1.0
  Ti  Ti3719  1  0.66001207  0.93874000  0.59862141  1.0
  Ti  Ti3720  1  0.74334540  0.10540667  0.59862141  1.0
  Ti  Ti3721  1  0.74334540  0.27207334  0.59862141  1.0
  Ti  Ti3722  1  0.74334540  0.43874000  0.59862141  1.0
  Ti  Ti3723  1  0.74334540  0.60540667  0.59862141  1.0
  Ti  Ti3724  1  0.74334540  0.77207334  0.59862141  1.0
  Ti  Ti3725  1  0.74334540  0.93874000  0.59862141  1.0
  Ti  Ti3726  1  0.82667874  0.10540667  0.59862141  1.0
  Ti  Ti3727  1  0.82667874  0.27207334  0.59862141  1.0
  Ti  Ti3728  1  0.82667874  0.43874000  0.59862141  1.0
  Ti  Ti3729  1  0.82667874  0.60540667  0.59862141  1.0
  Ti  Ti3730  1  0.82667874  0.77207334  0.59862141  1.0
  Ti  Ti3731  1  0.82667874  0.93874000  0.59862141  1.0
  Ti  Ti3732  1  0.91001207  0.10540667  0.59862141  1.0
  Ti  Ti3733  1  0.91001207  0.27207334  0.59862141  1.0
  Ti  Ti3734  1  0.91001207  0.43874000  0.59862141  1.0
  Ti  Ti3735  1  0.91001207  0.60540667  0.59862141  1.0
  Ti  Ti3736  1  0.91001207  0.77207334  0.59862141  1.0
  Ti  Ti3737  1  0.91001207  0.93874000  0.59862141  1.0
  Ti  Ti3738  1  0.99334540  0.10540667  0.59862141  1.0
  Ti  Ti3739  1  0.99334540  0.27207334  0.59862141  1.0
  Ti  Ti3740  1  0.99334540  0.43874000  0.59862141  1.0
  Ti  Ti3741  1  0.99334540  0.60540667  0.59862141  1.0
  Ti  Ti3742  1  0.99334540  0.77207334  0.59862141  1.0
  Ti  Ti3743  1  0.99334540  0.93874000  0.59862141  1.0
  Ti  Ti3744  1  0.00556946  0.08678673  0.56006469  1.0
  Ti  Ti3745  1  0.00556946  0.25345339  0.56006469  1.0
  Ti  Ti3746  1  0.00556946  0.42012006  0.56006469  1.0
  Ti  Ti3747  1  0.00556946  0.58678673  0.56006469  1.0
  Ti  Ti3748  1  0.00556946  0.75345339  0.56006469  1.0
  Ti  Ti3749  1  0.00556946  0.92012006  0.56006469  1.0
  Ti  Ti3750  1  0.08890279  0.08678673  0.56006469  1.0
  Ti  Ti3751  1  0.08890279  0.25345339  0.56006469  1.0
  Ti  Ti3752  1  0.08890279  0.42012006  0.56006469  1.0
  Ti  Ti3753  1  0.08890279  0.58678673  0.56006469  1.0
  Ti  Ti3754  1  0.08890279  0.75345339  0.56006469  1.0
  Ti  Ti3755  1  0.08890279  0.92012006  0.56006469  1.0
  Ti  Ti3756  1  0.17223613  0.08678673  0.56006469  1.0
  Ti  Ti3757  1  0.17223613  0.25345339  0.56006469  1.0
  Ti  Ti3758  1  0.17223613  0.42012006  0.56006469  1.0
  Ti  Ti3759  1  0.17223613  0.58678673  0.56006469  1.0
  Ti  Ti3760  1  0.17223613  0.75345339  0.56006469  1.0
  Ti  Ti3761  1  0.17223613  0.92012006  0.56006469  1.0
  Ti  Ti3762  1  0.25556946  0.08678673  0.56006469  1.0
  Ti  Ti3763  1  0.25556946  0.25345339  0.56006469  1.0
  Ti  Ti3764  1  0.25556946  0.42012006  0.56006469  1.0
  Ti  Ti3765  1  0.25556946  0.58678673  0.56006469  1.0
  Ti  Ti3766  1  0.25556946  0.75345339  0.56006469  1.0
  Ti  Ti3767  1  0.25556946  0.92012006  0.56006469  1.0
  Ti  Ti3768  1  0.33890279  0.08678673  0.56006469  1.0
  Ti  Ti3769  1  0.33890279  0.25345339  0.56006469  1.0
  Ti  Ti3770  1  0.33890279  0.42012006  0.56006469  1.0
  Ti  Ti3771  1  0.33890279  0.58678673  0.56006469  1.0
  Ti  Ti3772  1  0.33890279  0.75345339  0.56006469  1.0
  Ti  Ti3773  1  0.33890279  0.92012006  0.56006469  1.0
  Ti  Ti3774  1  0.42223613  0.08678673  0.56006469  1.0
  Ti  Ti3775  1  0.42223613  0.25345339  0.56006469  1.0
  Ti  Ti3776  1  0.42223613  0.42012006  0.56006469  1.0
  Ti  Ti3777  1  0.42223613  0.58678673  0.56006469  1.0
  Ti  Ti3778  1  0.42223613  0.75345339  0.56006469  1.0
  Ti  Ti3779  1  0.42223613  0.92012006  0.56006469  1.0
  Ti  Ti3780  1  0.50556946  0.08678673  0.56006469  1.0
  Ti  Ti3781  1  0.50556946  0.25345339  0.56006469  1.0
  Ti  Ti3782  1  0.50556946  0.42012006  0.56006469  1.0
  Ti  Ti3783  1  0.50556946  0.58678673  0.56006469  1.0
  Ti  Ti3784  1  0.50556946  0.75345339  0.56006469  1.0
  Ti  Ti3785  1  0.50556946  0.92012006  0.56006469  1.0
  Ti  Ti3786  1  0.58890279  0.08678673  0.56006469  1.0
  Ti  Ti3787  1  0.58890279  0.25345339  0.56006469  1.0
  Ti  Ti3788  1  0.58890279  0.42012006  0.56006469  1.0
  Ti  Ti3789  1  0.58890279  0.58678673  0.56006469  1.0
  Ti  Ti3790  1  0.58890279  0.75345339  0.56006469  1.0
  Ti  Ti3791  1  0.58890279  0.92012006  0.56006469  1.0
  Ti  Ti3792  1  0.67223613  0.08678673  0.56006469  1.0
  Ti  Ti3793  1  0.67223613  0.25345339  0.56006469  1.0
  Ti  Ti3794  1  0.67223613  0.42012006  0.56006469  1.0
  Ti  Ti3795  1  0.67223613  0.58678673  0.56006469  1.0
  Ti  Ti3796  1  0.67223613  0.75345339  0.56006469  1.0
  Ti  Ti3797  1  0.67223613  0.92012006  0.56006469  1.0
  Ti  Ti3798  1  0.75556946  0.08678673  0.56006469  1.0
  Ti  Ti3799  1  0.75556946  0.25345339  0.56006469  1.0
  Ti  Ti3800  1  0.75556946  0.42012006  0.56006469  1.0
  Ti  Ti3801  1  0.75556946  0.58678673  0.56006469  1.0
  Ti  Ti3802  1  0.75556946  0.75345339  0.56006469  1.0
  Ti  Ti3803  1  0.75556946  0.92012006  0.56006469  1.0
  Ti  Ti3804  1  0.83890279  0.08678673  0.56006469  1.0
  Ti  Ti3805  1  0.83890279  0.25345339  0.56006469  1.0
  Ti  Ti3806  1  0.83890279  0.42012006  0.56006469  1.0
  Ti  Ti3807  1  0.83890279  0.58678673  0.56006469  1.0
  Ti  Ti3808  1  0.83890279  0.75345339  0.56006469  1.0
  Ti  Ti3809  1  0.83890279  0.92012006  0.56006469  1.0
  Ti  Ti3810  1  0.92223613  0.08678673  0.56006469  1.0
  Ti  Ti3811  1  0.92223613  0.25345339  0.56006469  1.0
  Ti  Ti3812  1  0.92223613  0.42012006  0.56006469  1.0
  Ti  Ti3813  1  0.92223613  0.58678673  0.56006469  1.0
  Ti  Ti3814  1  0.92223613  0.75345339  0.56006469  1.0
  Ti  Ti3815  1  0.92223613  0.92012006  0.56006469  1.0
  Ti  Ti3816  1  0.06509327  0.07488196  0.63149326  1.0
  Ti  Ti3817  1  0.06509327  0.24154863  0.63149326  1.0
  Ti  Ti3818  1  0.06509327  0.40821530  0.63149326  1.0
  Ti  Ti3819  1  0.06509327  0.57488196  0.63149326  1.0
  Ti  Ti3820  1  0.06509327  0.74154863  0.63149326  1.0
  Ti  Ti3821  1  0.06509327  0.90821530  0.63149326  1.0
  Ti  Ti3822  1  0.14842660  0.07488196  0.63149326  1.0
  Ti  Ti3823  1  0.14842660  0.24154863  0.63149326  1.0
  Ti  Ti3824  1  0.14842660  0.40821530  0.63149326  1.0
  Ti  Ti3825  1  0.14842660  0.57488196  0.63149326  1.0
  Ti  Ti3826  1  0.14842660  0.74154863  0.63149326  1.0
  Ti  Ti3827  1  0.14842660  0.90821530  0.63149326  1.0
  Ti  Ti3828  1  0.23175994  0.07488196  0.63149326  1.0
  Ti  Ti3829  1  0.23175994  0.24154863  0.63149326  1.0
  Ti  Ti3830  1  0.23175994  0.40821530  0.63149326  1.0
  Ti  Ti3831  1  0.23175994  0.57488196  0.63149326  1.0
  Ti  Ti3832  1  0.23175994  0.74154863  0.63149326  1.0
  Ti  Ti3833  1  0.23175994  0.90821530  0.63149326  1.0
  Ti  Ti3834  1  0.31509327  0.07488196  0.63149326  1.0
  Ti  Ti3835  1  0.31509327  0.24154863  0.63149326  1.0
  Ti  Ti3836  1  0.31509327  0.40821530  0.63149326  1.0
  Ti  Ti3837  1  0.31509327  0.57488196  0.63149326  1.0
  Ti  Ti3838  1  0.31509327  0.74154863  0.63149326  1.0
  Ti  Ti3839  1  0.31509327  0.90821530  0.63149326  1.0
  Ti  Ti3840  1  0.39842660  0.07488196  0.63149326  1.0
  Ti  Ti3841  1  0.39842660  0.24154863  0.63149326  1.0
  Ti  Ti3842  1  0.39842660  0.40821530  0.63149326  1.0
  Ti  Ti3843  1  0.39842660  0.57488196  0.63149326  1.0
  Ti  Ti3844  1  0.39842660  0.74154863  0.63149326  1.0
  Ti  Ti3845  1  0.39842660  0.90821530  0.63149326  1.0
  Ti  Ti3846  1  0.48175994  0.07488196  0.63149326  1.0
  Ti  Ti3847  1  0.48175994  0.24154863  0.63149326  1.0
  Ti  Ti3848  1  0.48175994  0.40821530  0.63149326  1.0
  Ti  Ti3849  1  0.48175994  0.57488196  0.63149326  1.0
  Ti  Ti3850  1  0.48175994  0.74154863  0.63149326  1.0
  Ti  Ti3851  1  0.48175994  0.90821530  0.63149326  1.0
  Ti  Ti3852  1  0.56509327  0.07488196  0.63149326  1.0
  Ti  Ti3853  1  0.56509327  0.24154863  0.63149326  1.0
  Ti  Ti3854  1  0.56509327  0.40821530  0.63149326  1.0
  Ti  Ti3855  1  0.56509327  0.57488196  0.63149326  1.0
  Ti  Ti3856  1  0.56509327  0.74154863  0.63149326  1.0
  Ti  Ti3857  1  0.56509327  0.90821530  0.63149326  1.0
  Ti  Ti3858  1  0.64842660  0.07488196  0.63149326  1.0
  Ti  Ti3859  1  0.64842660  0.24154863  0.63149326  1.0
  Ti  Ti3860  1  0.64842660  0.40821530  0.63149326  1.0
  Ti  Ti3861  1  0.64842660  0.57488196  0.63149326  1.0
  Ti  Ti3862  1  0.64842660  0.74154863  0.63149326  1.0
  Ti  Ti3863  1  0.64842660  0.90821530  0.63149326  1.0
  Ti  Ti3864  1  0.73175994  0.07488196  0.63149326  1.0
  Ti  Ti3865  1  0.73175994  0.24154863  0.63149326  1.0
  Ti  Ti3866  1  0.73175994  0.40821530  0.63149326  1.0
  Ti  Ti3867  1  0.73175994  0.57488196  0.63149326  1.0
  Ti  Ti3868  1  0.73175994  0.74154863  0.63149326  1.0
  Ti  Ti3869  1  0.73175994  0.90821530  0.63149326  1.0
  Ti  Ti3870  1  0.81509327  0.07488196  0.63149326  1.0
  Ti  Ti3871  1  0.81509327  0.24154863  0.63149326  1.0
  Ti  Ti3872  1  0.81509327  0.40821530  0.63149326  1.0
  Ti  Ti3873  1  0.81509327  0.57488196  0.63149326  1.0
  Ti  Ti3874  1  0.81509327  0.74154863  0.63149326  1.0
  Ti  Ti3875  1  0.81509327  0.90821530  0.63149326  1.0
  Ti  Ti3876  1  0.89842660  0.07488196  0.63149326  1.0
  Ti  Ti3877  1  0.89842660  0.24154863  0.63149326  1.0
  Ti  Ti3878  1  0.89842660  0.40821530  0.63149326  1.0
  Ti  Ti3879  1  0.89842660  0.57488196  0.63149326  1.0
  Ti  Ti3880  1  0.89842660  0.74154863  0.63149326  1.0
  Ti  Ti3881  1  0.89842660  0.90821530  0.63149326  1.0
  Ti  Ti3882  1  0.98175994  0.07488196  0.63149326  1.0
  Ti  Ti3883  1  0.98175994  0.24154863  0.63149326  1.0
  Ti  Ti3884  1  0.98175994  0.40821530  0.63149326  1.0
  Ti  Ti3885  1  0.98175994  0.57488196  0.63149326  1.0
  Ti  Ti3886  1  0.98175994  0.74154863  0.63149326  1.0
  Ti  Ti3887  1  0.98175994  0.90821530  0.63149326  1.0
  Ti  Ti3888  1  0.00766100  0.03676894  0.54880827  1.0
  Ti  Ti3889  1  0.00766100  0.20343561  0.54880827  1.0
  Ti  Ti3890  1  0.00766100  0.37010228  0.54880827  1.0
  Ti  Ti3891  1  0.00766100  0.53676894  0.54880827  1.0
  Ti  Ti3892  1  0.00766100  0.70343561  0.54880827  1.0
  Ti  Ti3893  1  0.00766100  0.87010228  0.54880827  1.0
  Ti  Ti3894  1  0.09099433  0.03676894  0.54880827  1.0
  Ti  Ti3895  1  0.09099433  0.20343561  0.54880827  1.0
  Ti  Ti3896  1  0.09099433  0.37010228  0.54880827  1.0
  Ti  Ti3897  1  0.09099433  0.53676894  0.54880827  1.0
  Ti  Ti3898  1  0.09099433  0.70343561  0.54880827  1.0
  Ti  Ti3899  1  0.09099433  0.87010228  0.54880827  1.0
  Ti  Ti3900  1  0.17432766  0.03676894  0.54880827  1.0
  Ti  Ti3901  1  0.17432766  0.20343561  0.54880827  1.0
  Ti  Ti3902  1  0.17432766  0.37010228  0.54880827  1.0
  Ti  Ti3903  1  0.17432766  0.53676894  0.54880827  1.0
  Ti  Ti3904  1  0.17432766  0.70343561  0.54880827  1.0
  Ti  Ti3905  1  0.17432766  0.87010228  0.54880827  1.0
  Ti  Ti3906  1  0.25766100  0.03676894  0.54880827  1.0
  Ti  Ti3907  1  0.25766100  0.20343561  0.54880827  1.0
  Ti  Ti3908  1  0.25766100  0.37010228  0.54880827  1.0
  Ti  Ti3909  1  0.25766100  0.53676894  0.54880827  1.0
  Ti  Ti3910  1  0.25766100  0.70343561  0.54880827  1.0
  Ti  Ti3911  1  0.25766100  0.87010228  0.54880827  1.0
  Ti  Ti3912  1  0.34099433  0.03676894  0.54880827  1.0
  Ti  Ti3913  1  0.34099433  0.20343561  0.54880827  1.0
  Ti  Ti3914  1  0.34099433  0.37010228  0.54880827  1.0
  Ti  Ti3915  1  0.34099433  0.53676894  0.54880827  1.0
  Ti  Ti3916  1  0.34099433  0.70343561  0.54880827  1.0
  Ti  Ti3917  1  0.34099433  0.87010228  0.54880827  1.0
  Ti  Ti3918  1  0.42432766  0.03676894  0.54880827  1.0
  Ti  Ti3919  1  0.42432766  0.20343561  0.54880827  1.0
  Ti  Ti3920  1  0.42432766  0.37010228  0.54880827  1.0
  Ti  Ti3921  1  0.42432766  0.53676894  0.54880827  1.0
  Ti  Ti3922  1  0.42432766  0.70343561  0.54880827  1.0
  Ti  Ti3923  1  0.42432766  0.87010228  0.54880827  1.0
  Ti  Ti3924  1  0.50766100  0.03676894  0.54880827  1.0
  Ti  Ti3925  1  0.50766100  0.20343561  0.54880827  1.0
  Ti  Ti3926  1  0.50766100  0.37010228  0.54880827  1.0
  Ti  Ti3927  1  0.50766100  0.53676894  0.54880827  1.0
  Ti  Ti3928  1  0.50766100  0.70343561  0.54880827  1.0
  Ti  Ti3929  1  0.50766100  0.87010228  0.54880827  1.0
  Ti  Ti3930  1  0.59099433  0.03676894  0.54880827  1.0
  Ti  Ti3931  1  0.59099433  0.20343561  0.54880827  1.0
  Ti  Ti3932  1  0.59099433  0.37010228  0.54880827  1.0
  Ti  Ti3933  1  0.59099433  0.53676894  0.54880827  1.0
  Ti  Ti3934  1  0.59099433  0.70343561  0.54880827  1.0
  Ti  Ti3935  1  0.59099433  0.87010228  0.54880827  1.0
  Ti  Ti3936  1  0.67432766  0.03676894  0.54880827  1.0
  Ti  Ti3937  1  0.67432766  0.20343561  0.54880827  1.0
  Ti  Ti3938  1  0.67432766  0.37010228  0.54880827  1.0
  Ti  Ti3939  1  0.67432766  0.53676894  0.54880827  1.0
  Ti  Ti3940  1  0.67432766  0.70343561  0.54880827  1.0
  Ti  Ti3941  1  0.67432766  0.87010228  0.54880827  1.0
  Ti  Ti3942  1  0.75766100  0.03676894  0.54880827  1.0
  Ti  Ti3943  1  0.75766100  0.20343561  0.54880827  1.0
  Ti  Ti3944  1  0.75766100  0.37010228  0.54880827  1.0
  Ti  Ti3945  1  0.75766100  0.53676894  0.54880827  1.0
  Ti  Ti3946  1  0.75766100  0.70343561  0.54880827  1.0
  Ti  Ti3947  1  0.75766100  0.87010228  0.54880827  1.0
  Ti  Ti3948  1  0.84099433  0.03676894  0.54880827  1.0
  Ti  Ti3949  1  0.84099433  0.20343561  0.54880827  1.0
  Ti  Ti3950  1  0.84099433  0.37010228  0.54880827  1.0
  Ti  Ti3951  1  0.84099433  0.53676894  0.54880827  1.0
  Ti  Ti3952  1  0.84099433  0.70343561  0.54880827  1.0
  Ti  Ti3953  1  0.84099433  0.87010228  0.54880827  1.0
  Ti  Ti3954  1  0.92432766  0.03676894  0.54880827  1.0
  Ti  Ti3955  1  0.92432766  0.20343561  0.54880827  1.0
  Ti  Ti3956  1  0.92432766  0.37010228  0.54880827  1.0
  Ti  Ti3957  1  0.92432766  0.53676894  0.54880827  1.0
  Ti  Ti3958  1  0.92432766  0.70343561  0.54880827  1.0
  Ti  Ti3959  1  0.92432766  0.87010228  0.54880827  1.0
  Ti  Ti3960  1  0.06718481  0.02486418  0.62023684  1.0
  Ti  Ti3961  1  0.06718481  0.19153085  0.62023684  1.0
  Ti  Ti3962  1  0.06718481  0.35819751  0.62023684  1.0
  Ti  Ti3963  1  0.06718481  0.52486418  0.62023684  1.0
  Ti  Ti3964  1  0.06718481  0.69153085  0.62023684  1.0
  Ti  Ti3965  1  0.06718481  0.85819751  0.62023684  1.0
  Ti  Ti3966  1  0.15051814  0.02486418  0.62023684  1.0
  Ti  Ti3967  1  0.15051814  0.19153085  0.62023684  1.0
  Ti  Ti3968  1  0.15051814  0.35819751  0.62023684  1.0
  Ti  Ti3969  1  0.15051814  0.52486418  0.62023684  1.0
  Ti  Ti3970  1  0.15051814  0.69153085  0.62023684  1.0
  Ti  Ti3971  1  0.15051814  0.85819751  0.62023684  1.0
  Ti  Ti3972  1  0.23385147  0.02486418  0.62023684  1.0
  Ti  Ti3973  1  0.23385147  0.19153085  0.62023684  1.0
  Ti  Ti3974  1  0.23385147  0.35819751  0.62023684  1.0
  Ti  Ti3975  1  0.23385147  0.52486418  0.62023684  1.0
  Ti  Ti3976  1  0.23385147  0.69153085  0.62023684  1.0
  Ti  Ti3977  1  0.23385147  0.85819751  0.62023684  1.0
  Ti  Ti3978  1  0.31718481  0.02486418  0.62023684  1.0
  Ti  Ti3979  1  0.31718481  0.19153085  0.62023684  1.0
  Ti  Ti3980  1  0.31718481  0.35819751  0.62023684  1.0
  Ti  Ti3981  1  0.31718481  0.52486418  0.62023684  1.0
  Ti  Ti3982  1  0.31718481  0.69153085  0.62023684  1.0
  Ti  Ti3983  1  0.31718481  0.85819751  0.62023684  1.0
  Ti  Ti3984  1  0.40051814  0.02486418  0.62023684  1.0
  Ti  Ti3985  1  0.40051814  0.19153085  0.62023684  1.0
  Ti  Ti3986  1  0.40051814  0.35819751  0.62023684  1.0
  Ti  Ti3987  1  0.40051814  0.52486418  0.62023684  1.0
  Ti  Ti3988  1  0.40051814  0.69153085  0.62023684  1.0
  Ti  Ti3989  1  0.40051814  0.85819751  0.62023684  1.0
  Ti  Ti3990  1  0.48385147  0.02486418  0.62023684  1.0
  Ti  Ti3991  1  0.48385147  0.19153085  0.62023684  1.0
  Ti  Ti3992  1  0.48385147  0.35819751  0.62023684  1.0
  Ti  Ti3993  1  0.48385147  0.52486418  0.62023684  1.0
  Ti  Ti3994  1  0.48385147  0.69153085  0.62023684  1.0
  Ti  Ti3995  1  0.48385147  0.85819751  0.62023684  1.0
  Ti  Ti3996  1  0.56718481  0.02486418  0.62023684  1.0
  Ti  Ti3997  1  0.56718481  0.19153085  0.62023684  1.0
  Ti  Ti3998  1  0.56718481  0.35819751  0.62023684  1.0
  Ti  Ti3999  1  0.56718481  0.52486418  0.62023684  1.0
  Ti  Ti4000  1  0.56718481  0.69153085  0.62023684  1.0
  Ti  Ti4001  1  0.56718481  0.85819751  0.62023684  1.0
  Ti  Ti4002  1  0.65051814  0.02486418  0.62023684  1.0
  Ti  Ti4003  1  0.65051814  0.19153085  0.62023684  1.0
  Ti  Ti4004  1  0.65051814  0.35819751  0.62023684  1.0
  Ti  Ti4005  1  0.65051814  0.52486418  0.62023684  1.0
  Ti  Ti4006  1  0.65051814  0.69153085  0.62023684  1.0
  Ti  Ti4007  1  0.65051814  0.85819751  0.62023684  1.0
  Ti  Ti4008  1  0.73385147  0.02486418  0.62023684  1.0
  Ti  Ti4009  1  0.73385147  0.19153085  0.62023684  1.0
  Ti  Ti4010  1  0.73385147  0.35819751  0.62023684  1.0
  Ti  Ti4011  1  0.73385147  0.52486418  0.62023684  1.0
  Ti  Ti4012  1  0.73385147  0.69153085  0.62023684  1.0
  Ti  Ti4013  1  0.73385147  0.85819751  0.62023684  1.0
  Ti  Ti4014  1  0.81718481  0.02486418  0.62023684  1.0
  Ti  Ti4015  1  0.81718481  0.19153085  0.62023684  1.0
  Ti  Ti4016  1  0.81718481  0.35819751  0.62023684  1.0
  Ti  Ti4017  1  0.81718481  0.52486418  0.62023684  1.0
  Ti  Ti4018  1  0.81718481  0.69153085  0.62023684  1.0
  Ti  Ti4019  1  0.81718481  0.85819751  0.62023684  1.0
  Ti  Ti4020  1  0.90051814  0.02486418  0.62023684  1.0
  Ti  Ti4021  1  0.90051814  0.19153085  0.62023684  1.0
  Ti  Ti4022  1  0.90051814  0.35819751  0.62023684  1.0
  Ti  Ti4023  1  0.90051814  0.52486418  0.62023684  1.0
  Ti  Ti4024  1  0.90051814  0.69153085  0.62023684  1.0
  Ti  Ti4025  1  0.90051814  0.85819751  0.62023684  1.0
  Ti  Ti4026  1  0.98385147  0.02486418  0.62023684  1.0
  Ti  Ti4027  1  0.98385147  0.19153085  0.62023684  1.0
  Ti  Ti4028  1  0.98385147  0.35819751  0.62023684  1.0
  Ti  Ti4029  1  0.98385147  0.52486418  0.62023684  1.0
  Ti  Ti4030  1  0.98385147  0.69153085  0.62023684  1.0
  Ti  Ti4031  1  0.98385147  0.85819751  0.62023684  1.0
  Ti  Ti4032  1  0.06597235  0.16630101  0.50226789  1.0
  Ti  Ti4033  1  0.06597235  0.33296768  0.50226789  1.0
  Ti  Ti4034  1  0.06597235  0.49963434  0.50226789  1.0
  Ti  Ti4035  1  0.06597235  0.66630101  0.50226789  1.0
  Ti  Ti4036  1  0.06597235  0.83296768  0.50226789  1.0
  Ti  Ti4037  1  0.06597235  0.99963434  0.50226789  1.0
  Ti  Ti4038  1  0.14930568  0.16630101  0.50226789  1.0
  Ti  Ti4039  1  0.14930568  0.33296768  0.50226789  1.0
  Ti  Ti4040  1  0.14930568  0.49963434  0.50226789  1.0
  Ti  Ti4041  1  0.14930568  0.66630101  0.50226789  1.0
  Ti  Ti4042  1  0.14930568  0.83296768  0.50226789  1.0
  Ti  Ti4043  1  0.14930568  0.99963434  0.50226789  1.0
  Ti  Ti4044  1  0.23263902  0.16630101  0.50226789  1.0
  Ti  Ti4045  1  0.23263902  0.33296768  0.50226789  1.0
  Ti  Ti4046  1  0.23263902  0.49963434  0.50226789  1.0
  Ti  Ti4047  1  0.23263902  0.66630101  0.50226789  1.0
  Ti  Ti4048  1  0.23263902  0.83296768  0.50226789  1.0
  Ti  Ti4049  1  0.23263902  0.99963434  0.50226789  1.0
  Ti  Ti4050  1  0.31597235  0.16630101  0.50226789  1.0
  Ti  Ti4051  1  0.31597235  0.33296768  0.50226789  1.0
  Ti  Ti4052  1  0.31597235  0.49963434  0.50226789  1.0
  Ti  Ti4053  1  0.31597235  0.66630101  0.50226789  1.0
  Ti  Ti4054  1  0.31597235  0.83296768  0.50226789  1.0
  Ti  Ti4055  1  0.31597235  0.99963434  0.50226789  1.0
  Ti  Ti4056  1  0.39930568  0.16630101  0.50226789  1.0
  Ti  Ti4057  1  0.39930568  0.33296768  0.50226789  1.0
  Ti  Ti4058  1  0.39930568  0.49963434  0.50226789  1.0
  Ti  Ti4059  1  0.39930568  0.66630101  0.50226789  1.0
  Ti  Ti4060  1  0.39930568  0.83296768  0.50226789  1.0
  Ti  Ti4061  1  0.39930568  0.99963434  0.50226789  1.0
  Ti  Ti4062  1  0.48263902  0.16630101  0.50226789  1.0
  Ti  Ti4063  1  0.48263902  0.33296768  0.50226789  1.0
  Ti  Ti4064  1  0.48263902  0.49963434  0.50226789  1.0
  Ti  Ti4065  1  0.48263902  0.66630101  0.50226789  1.0
  Ti  Ti4066  1  0.48263902  0.83296768  0.50226789  1.0
  Ti  Ti4067  1  0.48263902  0.99963434  0.50226789  1.0
  Ti  Ti4068  1  0.56597235  0.16630101  0.50226789  1.0
  Ti  Ti4069  1  0.56597235  0.33296768  0.50226789  1.0
  Ti  Ti4070  1  0.56597235  0.49963434  0.50226789  1.0
  Ti  Ti4071  1  0.56597235  0.66630101  0.50226789  1.0
  Ti  Ti4072  1  0.56597235  0.83296768  0.50226789  1.0
  Ti  Ti4073  1  0.56597235  0.99963434  0.50226789  1.0
  Ti  Ti4074  1  0.64930568  0.16630101  0.50226789  1.0
  Ti  Ti4075  1  0.64930568  0.33296768  0.50226789  1.0
  Ti  Ti4076  1  0.64930568  0.49963434  0.50226789  1.0
  Ti  Ti4077  1  0.64930568  0.66630101  0.50226789  1.0
  Ti  Ti4078  1  0.64930568  0.83296768  0.50226789  1.0
  Ti  Ti4079  1  0.64930568  0.99963434  0.50226789  1.0
  Ti  Ti4080  1  0.73263902  0.16630101  0.50226789  1.0
  Ti  Ti4081  1  0.73263902  0.33296768  0.50226789  1.0
  Ti  Ti4082  1  0.73263902  0.49963434  0.50226789  1.0
  Ti  Ti4083  1  0.73263902  0.66630101  0.50226789  1.0
  Ti  Ti4084  1  0.73263902  0.83296768  0.50226789  1.0
  Ti  Ti4085  1  0.73263902  0.99963434  0.50226789  1.0
  Ti  Ti4086  1  0.81597235  0.16630101  0.50226789  1.0
  Ti  Ti4087  1  0.81597235  0.33296768  0.50226789  1.0
  Ti  Ti4088  1  0.81597235  0.49963434  0.50226789  1.0
  Ti  Ti4089  1  0.81597235  0.66630101  0.50226789  1.0
  Ti  Ti4090  1  0.81597235  0.83296768  0.50226789  1.0
  Ti  Ti4091  1  0.81597235  0.99963434  0.50226789  1.0
  Ti  Ti4092  1  0.89930568  0.16630101  0.50226789  1.0
  Ti  Ti4093  1  0.89930568  0.33296768  0.50226789  1.0
  Ti  Ti4094  1  0.89930568  0.49963434  0.50226789  1.0
  Ti  Ti4095  1  0.89930568  0.66630101  0.50226789  1.0
  Ti  Ti4096  1  0.89930568  0.83296768  0.50226789  1.0
  Ti  Ti4097  1  0.89930568  0.99963434  0.50226789  1.0
  Ti  Ti4098  1  0.98263902  0.16630101  0.50226789  1.0
  Ti  Ti4099  1  0.98263902  0.33296768  0.50226789  1.0
  Ti  Ti4100  1  0.98263902  0.49963434  0.50226789  1.0
  Ti  Ti4101  1  0.98263902  0.66630101  0.50226789  1.0
  Ti  Ti4102  1  0.98263902  0.83296768  0.50226789  1.0
  Ti  Ti4103  1  0.98263902  0.99963434  0.50226789  1.0
  Ti  Ti4104  1  0.04216283  0.15439625  0.57369646  1.0
  Ti  Ti4105  1  0.04216283  0.32106292  0.57369646  1.0
  Ti  Ti4106  1  0.04216283  0.48772958  0.57369646  1.0
  Ti  Ti4107  1  0.04216283  0.65439625  0.57369646  1.0
  Ti  Ti4108  1  0.04216283  0.82106292  0.57369646  1.0
  Ti  Ti4109  1  0.04216283  0.98772958  0.57369646  1.0
  Ti  Ti4110  1  0.12549616  0.15439625  0.57369646  1.0
  Ti  Ti4111  1  0.12549616  0.32106292  0.57369646  1.0
  Ti  Ti4112  1  0.12549616  0.48772958  0.57369646  1.0
  Ti  Ti4113  1  0.12549616  0.65439625  0.57369646  1.0
  Ti  Ti4114  1  0.12549616  0.82106292  0.57369646  1.0
  Ti  Ti4115  1  0.12549616  0.98772958  0.57369646  1.0
  Ti  Ti4116  1  0.20882949  0.15439625  0.57369646  1.0
  Ti  Ti4117  1  0.20882949  0.32106292  0.57369646  1.0
  Ti  Ti4118  1  0.20882949  0.48772958  0.57369646  1.0
  Ti  Ti4119  1  0.20882949  0.65439625  0.57369646  1.0
  Ti  Ti4120  1  0.20882949  0.82106292  0.57369646  1.0
  Ti  Ti4121  1  0.20882949  0.98772958  0.57369646  1.0
  Ti  Ti4122  1  0.29216283  0.15439625  0.57369646  1.0
  Ti  Ti4123  1  0.29216283  0.32106292  0.57369646  1.0
  Ti  Ti4124  1  0.29216283  0.48772958  0.57369646  1.0
  Ti  Ti4125  1  0.29216283  0.65439625  0.57369646  1.0
  Ti  Ti4126  1  0.29216283  0.82106292  0.57369646  1.0
  Ti  Ti4127  1  0.29216283  0.98772958  0.57369646  1.0
  Ti  Ti4128  1  0.37549616  0.15439625  0.57369646  1.0
  Ti  Ti4129  1  0.37549616  0.32106292  0.57369646  1.0
  Ti  Ti4130  1  0.37549616  0.48772958  0.57369646  1.0
  Ti  Ti4131  1  0.37549616  0.65439625  0.57369646  1.0
  Ti  Ti4132  1  0.37549616  0.82106292  0.57369646  1.0
  Ti  Ti4133  1  0.37549616  0.98772958  0.57369646  1.0
  Ti  Ti4134  1  0.45882949  0.15439625  0.57369646  1.0
  Ti  Ti4135  1  0.45882949  0.32106292  0.57369646  1.0
  Ti  Ti4136  1  0.45882949  0.48772958  0.57369646  1.0
  Ti  Ti4137  1  0.45882949  0.65439625  0.57369646  1.0
  Ti  Ti4138  1  0.45882949  0.82106292  0.57369646  1.0
  Ti  Ti4139  1  0.45882949  0.98772958  0.57369646  1.0
  Ti  Ti4140  1  0.54216283  0.15439625  0.57369646  1.0
  Ti  Ti4141  1  0.54216283  0.32106292  0.57369646  1.0
  Ti  Ti4142  1  0.54216283  0.48772958  0.57369646  1.0
  Ti  Ti4143  1  0.54216283  0.65439625  0.57369646  1.0
  Ti  Ti4144  1  0.54216283  0.82106292  0.57369646  1.0
  Ti  Ti4145  1  0.54216283  0.98772958  0.57369646  1.0
  Ti  Ti4146  1  0.62549616  0.15439625  0.57369646  1.0
  Ti  Ti4147  1  0.62549616  0.32106292  0.57369646  1.0
  Ti  Ti4148  1  0.62549616  0.48772958  0.57369646  1.0
  Ti  Ti4149  1  0.62549616  0.65439625  0.57369646  1.0
  Ti  Ti4150  1  0.62549616  0.82106292  0.57369646  1.0
  Ti  Ti4151  1  0.62549616  0.98772958  0.57369646  1.0
  Ti  Ti4152  1  0.70882949  0.15439625  0.57369646  1.0
  Ti  Ti4153  1  0.70882949  0.32106292  0.57369646  1.0
  Ti  Ti4154  1  0.70882949  0.48772958  0.57369646  1.0
  Ti  Ti4155  1  0.70882949  0.65439625  0.57369646  1.0
  Ti  Ti4156  1  0.70882949  0.82106292  0.57369646  1.0
  Ti  Ti4157  1  0.70882949  0.98772958  0.57369646  1.0
  Ti  Ti4158  1  0.79216283  0.15439625  0.57369646  1.0
  Ti  Ti4159  1  0.79216283  0.32106292  0.57369646  1.0
  Ti  Ti4160  1  0.79216283  0.48772958  0.57369646  1.0
  Ti  Ti4161  1  0.79216283  0.65439625  0.57369646  1.0
  Ti  Ti4162  1  0.79216283  0.82106292  0.57369646  1.0
  Ti  Ti4163  1  0.79216283  0.98772958  0.57369646  1.0
  Ti  Ti4164  1  0.87549616  0.15439625  0.57369646  1.0
  Ti  Ti4165  1  0.87549616  0.32106292  0.57369646  1.0
  Ti  Ti4166  1  0.87549616  0.48772958  0.57369646  1.0
  Ti  Ti4167  1  0.87549616  0.65439625  0.57369646  1.0
  Ti  Ti4168  1  0.87549616  0.82106292  0.57369646  1.0
  Ti  Ti4169  1  0.87549616  0.98772958  0.57369646  1.0
  Ti  Ti4170  1  0.95882949  0.15439625  0.57369646  1.0
  Ti  Ti4171  1  0.95882949  0.32106292  0.57369646  1.0
  Ti  Ti4172  1  0.95882949  0.48772958  0.57369646  1.0
  Ti  Ti4173  1  0.95882949  0.65439625  0.57369646  1.0
  Ti  Ti4174  1  0.95882949  0.82106292  0.57369646  1.0
  Ti  Ti4175  1  0.95882949  0.98772958  0.57369646  1.0
  Ti  Ti4176  1  0.05898292  0.09088536  0.52166091  1.0
  Ti  Ti4177  1  0.05898292  0.25755202  0.52166091  1.0
  Ti  Ti4178  1  0.05898292  0.42421869  0.52166091  1.0
  Ti  Ti4179  1  0.05898292  0.59088536  0.52166091  1.0
  Ti  Ti4180  1  0.05898292  0.75755202  0.52166091  1.0
  Ti  Ti4181  1  0.05898292  0.92421869  0.52166091  1.0
  Ti  Ti4182  1  0.14231626  0.09088536  0.52166091  1.0
  Ti  Ti4183  1  0.14231626  0.25755202  0.52166091  1.0
  Ti  Ti4184  1  0.14231626  0.42421869  0.52166091  1.0
  Ti  Ti4185  1  0.14231626  0.59088536  0.52166091  1.0
  Ti  Ti4186  1  0.14231626  0.75755202  0.52166091  1.0
  Ti  Ti4187  1  0.14231626  0.92421869  0.52166091  1.0
  Ti  Ti4188  1  0.22564959  0.09088536  0.52166091  1.0
  Ti  Ti4189  1  0.22564959  0.25755202  0.52166091  1.0
  Ti  Ti4190  1  0.22564959  0.42421869  0.52166091  1.0
  Ti  Ti4191  1  0.22564959  0.59088536  0.52166091  1.0
  Ti  Ti4192  1  0.22564959  0.75755202  0.52166091  1.0
  Ti  Ti4193  1  0.22564959  0.92421869  0.52166091  1.0
  Ti  Ti4194  1  0.30898292  0.09088536  0.52166091  1.0
  Ti  Ti4195  1  0.30898292  0.25755202  0.52166091  1.0
  Ti  Ti4196  1  0.30898292  0.42421869  0.52166091  1.0
  Ti  Ti4197  1  0.30898292  0.59088536  0.52166091  1.0
  Ti  Ti4198  1  0.30898292  0.75755202  0.52166091  1.0
  Ti  Ti4199  1  0.30898292  0.92421869  0.52166091  1.0
  Ti  Ti4200  1  0.39231626  0.09088536  0.52166091  1.0
  Ti  Ti4201  1  0.39231626  0.25755202  0.52166091  1.0
  Ti  Ti4202  1  0.39231626  0.42421869  0.52166091  1.0
  Ti  Ti4203  1  0.39231626  0.59088536  0.52166091  1.0
  Ti  Ti4204  1  0.39231626  0.75755202  0.52166091  1.0
  Ti  Ti4205  1  0.39231626  0.92421869  0.52166091  1.0
  Ti  Ti4206  1  0.47564959  0.09088536  0.52166091  1.0
  Ti  Ti4207  1  0.47564959  0.25755202  0.52166091  1.0
  Ti  Ti4208  1  0.47564959  0.42421869  0.52166091  1.0
  Ti  Ti4209  1  0.47564959  0.59088536  0.52166091  1.0
  Ti  Ti4210  1  0.47564959  0.75755202  0.52166091  1.0
  Ti  Ti4211  1  0.47564959  0.92421869  0.52166091  1.0
  Ti  Ti4212  1  0.55898292  0.09088536  0.52166091  1.0
  Ti  Ti4213  1  0.55898292  0.25755202  0.52166091  1.0
  Ti  Ti4214  1  0.55898292  0.42421869  0.52166091  1.0
  Ti  Ti4215  1  0.55898292  0.59088536  0.52166091  1.0
  Ti  Ti4216  1  0.55898292  0.75755202  0.52166091  1.0
  Ti  Ti4217  1  0.55898292  0.92421869  0.52166091  1.0
  Ti  Ti4218  1  0.64231626  0.09088536  0.52166091  1.0
  Ti  Ti4219  1  0.64231626  0.25755202  0.52166091  1.0
  Ti  Ti4220  1  0.64231626  0.42421869  0.52166091  1.0
  Ti  Ti4221  1  0.64231626  0.59088536  0.52166091  1.0
  Ti  Ti4222  1  0.64231626  0.75755202  0.52166091  1.0
  Ti  Ti4223  1  0.64231626  0.92421869  0.52166091  1.0
  Ti  Ti4224  1  0.72564959  0.09088536  0.52166091  1.0
  Ti  Ti4225  1  0.72564959  0.25755202  0.52166091  1.0
  Ti  Ti4226  1  0.72564959  0.42421869  0.52166091  1.0
  Ti  Ti4227  1  0.72564959  0.59088536  0.52166091  1.0
  Ti  Ti4228  1  0.72564959  0.75755202  0.52166091  1.0
  Ti  Ti4229  1  0.72564959  0.92421869  0.52166091  1.0
  Ti  Ti4230  1  0.80898292  0.09088536  0.52166091  1.0
  Ti  Ti4231  1  0.80898292  0.25755202  0.52166091  1.0
  Ti  Ti4232  1  0.80898292  0.42421869  0.52166091  1.0
  Ti  Ti4233  1  0.80898292  0.59088536  0.52166091  1.0
  Ti  Ti4234  1  0.80898292  0.75755202  0.52166091  1.0
  Ti  Ti4235  1  0.80898292  0.92421869  0.52166091  1.0
  Ti  Ti4236  1  0.89231626  0.09088536  0.52166091  1.0
  Ti  Ti4237  1  0.89231626  0.25755202  0.52166091  1.0
  Ti  Ti4238  1  0.89231626  0.42421869  0.52166091  1.0
  Ti  Ti4239  1  0.89231626  0.59088536  0.52166091  1.0
  Ti  Ti4240  1  0.89231626  0.75755202  0.52166091  1.0
  Ti  Ti4241  1  0.89231626  0.92421869  0.52166091  1.0
  Ti  Ti4242  1  0.97564959  0.09088536  0.52166091  1.0
  Ti  Ti4243  1  0.97564959  0.25755202  0.52166091  1.0
  Ti  Ti4244  1  0.97564959  0.42421869  0.52166091  1.0
  Ti  Ti4245  1  0.97564959  0.59088536  0.52166091  1.0
  Ti  Ti4246  1  0.97564959  0.75755202  0.52166091  1.0
  Ti  Ti4247  1  0.97564959  0.92421869  0.52166091  1.0
  Ti  Ti4248  1  0.03517340  0.07898059  0.59308948  1.0
  Ti  Ti4249  1  0.03517340  0.24564726  0.59308948  1.0
  Ti  Ti4250  1  0.03517340  0.41231393  0.59308948  1.0
  Ti  Ti4251  1  0.03517340  0.57898059  0.59308948  1.0
  Ti  Ti4252  1  0.03517340  0.74564726  0.59308948  1.0
  Ti  Ti4253  1  0.03517340  0.91231393  0.59308948  1.0
  Ti  Ti4254  1  0.11850673  0.07898059  0.59308948  1.0
  Ti  Ti4255  1  0.11850673  0.24564726  0.59308948  1.0
  Ti  Ti4256  1  0.11850673  0.41231393  0.59308948  1.0
  Ti  Ti4257  1  0.11850673  0.57898059  0.59308948  1.0
  Ti  Ti4258  1  0.11850673  0.74564726  0.59308948  1.0
  Ti  Ti4259  1  0.11850673  0.91231393  0.59308948  1.0
  Ti  Ti4260  1  0.20184007  0.07898059  0.59308948  1.0
  Ti  Ti4261  1  0.20184007  0.24564726  0.59308948  1.0
  Ti  Ti4262  1  0.20184007  0.41231393  0.59308948  1.0
  Ti  Ti4263  1  0.20184007  0.57898059  0.59308948  1.0
  Ti  Ti4264  1  0.20184007  0.74564726  0.59308948  1.0
  Ti  Ti4265  1  0.20184007  0.91231393  0.59308948  1.0
  Ti  Ti4266  1  0.28517340  0.07898059  0.59308948  1.0
  Ti  Ti4267  1  0.28517340  0.24564726  0.59308948  1.0
  Ti  Ti4268  1  0.28517340  0.41231393  0.59308948  1.0
  Ti  Ti4269  1  0.28517340  0.57898059  0.59308948  1.0
  Ti  Ti4270  1  0.28517340  0.74564726  0.59308948  1.0
  Ti  Ti4271  1  0.28517340  0.91231393  0.59308948  1.0
  Ti  Ti4272  1  0.36850673  0.07898059  0.59308948  1.0
  Ti  Ti4273  1  0.36850673  0.24564726  0.59308948  1.0
  Ti  Ti4274  1  0.36850673  0.41231393  0.59308948  1.0
  Ti  Ti4275  1  0.36850673  0.57898059  0.59308948  1.0
  Ti  Ti4276  1  0.36850673  0.74564726  0.59308948  1.0
  Ti  Ti4277  1  0.36850673  0.91231393  0.59308948  1.0
  Ti  Ti4278  1  0.45184007  0.07898059  0.59308948  1.0
  Ti  Ti4279  1  0.45184007  0.24564726  0.59308948  1.0
  Ti  Ti4280  1  0.45184007  0.41231393  0.59308948  1.0
  Ti  Ti4281  1  0.45184007  0.57898059  0.59308948  1.0
  Ti  Ti4282  1  0.45184007  0.74564726  0.59308948  1.0
  Ti  Ti4283  1  0.45184007  0.91231393  0.59308948  1.0
  Ti  Ti4284  1  0.53517340  0.07898059  0.59308948  1.0
  Ti  Ti4285  1  0.53517340  0.24564726  0.59308948  1.0
  Ti  Ti4286  1  0.53517340  0.41231393  0.59308948  1.0
  Ti  Ti4287  1  0.53517340  0.57898059  0.59308948  1.0
  Ti  Ti4288  1  0.53517340  0.74564726  0.59308948  1.0
  Ti  Ti4289  1  0.53517340  0.91231393  0.59308948  1.0
  Ti  Ti4290  1  0.61850673  0.07898059  0.59308948  1.0
  Ti  Ti4291  1  0.61850673  0.24564726  0.59308948  1.0
  Ti  Ti4292  1  0.61850673  0.41231393  0.59308948  1.0
  Ti  Ti4293  1  0.61850673  0.57898059  0.59308948  1.0
  Ti  Ti4294  1  0.61850673  0.74564726  0.59308948  1.0
  Ti  Ti4295  1  0.61850673  0.91231393  0.59308948  1.0
  Ti  Ti4296  1  0.70184007  0.07898059  0.59308948  1.0
  Ti  Ti4297  1  0.70184007  0.24564726  0.59308948  1.0
  Ti  Ti4298  1  0.70184007  0.41231393  0.59308948  1.0
  Ti  Ti4299  1  0.70184007  0.57898059  0.59308948  1.0
  Ti  Ti4300  1  0.70184007  0.74564726  0.59308948  1.0
  Ti  Ti4301  1  0.70184007  0.91231393  0.59308948  1.0
  Ti  Ti4302  1  0.78517340  0.07898059  0.59308948  1.0
  Ti  Ti4303  1  0.78517340  0.24564726  0.59308948  1.0
  Ti  Ti4304  1  0.78517340  0.41231393  0.59308948  1.0
  Ti  Ti4305  1  0.78517340  0.57898059  0.59308948  1.0
  Ti  Ti4306  1  0.78517340  0.74564726  0.59308948  1.0
  Ti  Ti4307  1  0.78517340  0.91231393  0.59308948  1.0
  Ti  Ti4308  1  0.86850673  0.07898059  0.59308948  1.0
  Ti  Ti4309  1  0.86850673  0.24564726  0.59308948  1.0
  Ti  Ti4310  1  0.86850673  0.41231393  0.59308948  1.0
  Ti  Ti4311  1  0.86850673  0.57898059  0.59308948  1.0
  Ti  Ti4312  1  0.86850673  0.74564726  0.59308948  1.0
  Ti  Ti4313  1  0.86850673  0.91231393  0.59308948  1.0
  Ti  Ti4314  1  0.95184007  0.07898059  0.59308948  1.0
  Ti  Ti4315  1  0.95184007  0.24564726  0.59308948  1.0
  Ti  Ti4316  1  0.95184007  0.41231393  0.59308948  1.0
  Ti  Ti4317  1  0.95184007  0.57898059  0.59308948  1.0
  Ti  Ti4318  1  0.95184007  0.74564726  0.59308948  1.0
  Ti  Ti4319  1  0.95184007  0.91231393  0.59308948  1.0
  Ti  Ti4320  1  0.02244820  0.02335070  0.50596219  1.0
  Ti  Ti4321  1  0.02244820  0.19001737  0.50596219  1.0
  Ti  Ti4322  1  0.02244820  0.35668403  0.50596219  1.0
  Ti  Ti4323  1  0.02244820  0.52335070  0.50596219  1.0
  Ti  Ti4324  1  0.02244820  0.69001737  0.50596219  1.0
  Ti  Ti4325  1  0.02244820  0.85668403  0.50596219  1.0
  Ti  Ti4326  1  0.10578153  0.02335070  0.50596219  1.0
  Ti  Ti4327  1  0.10578153  0.19001737  0.50596219  1.0
  Ti  Ti4328  1  0.10578153  0.35668403  0.50596219  1.0
  Ti  Ti4329  1  0.10578153  0.52335070  0.50596219  1.0
  Ti  Ti4330  1  0.10578153  0.69001737  0.50596219  1.0
  Ti  Ti4331  1  0.10578153  0.85668403  0.50596219  1.0
  Ti  Ti4332  1  0.18911487  0.02335070  0.50596219  1.0
  Ti  Ti4333  1  0.18911487  0.19001737  0.50596219  1.0
  Ti  Ti4334  1  0.18911487  0.35668403  0.50596219  1.0
  Ti  Ti4335  1  0.18911487  0.52335070  0.50596219  1.0
  Ti  Ti4336  1  0.18911487  0.69001737  0.50596219  1.0
  Ti  Ti4337  1  0.18911487  0.85668403  0.50596219  1.0
  Ti  Ti4338  1  0.27244820  0.02335070  0.50596219  1.0
  Ti  Ti4339  1  0.27244820  0.19001737  0.50596219  1.0
  Ti  Ti4340  1  0.27244820  0.35668403  0.50596219  1.0
  Ti  Ti4341  1  0.27244820  0.52335070  0.50596219  1.0
  Ti  Ti4342  1  0.27244820  0.69001737  0.50596219  1.0
  Ti  Ti4343  1  0.27244820  0.85668403  0.50596219  1.0
  Ti  Ti4344  1  0.35578153  0.02335070  0.50596219  1.0
  Ti  Ti4345  1  0.35578153  0.19001737  0.50596219  1.0
  Ti  Ti4346  1  0.35578153  0.35668403  0.50596219  1.0
  Ti  Ti4347  1  0.35578153  0.52335070  0.50596219  1.0
  Ti  Ti4348  1  0.35578153  0.69001737  0.50596219  1.0
  Ti  Ti4349  1  0.35578153  0.85668403  0.50596219  1.0
  Ti  Ti4350  1  0.43911487  0.02335070  0.50596219  1.0
  Ti  Ti4351  1  0.43911487  0.19001737  0.50596219  1.0
  Ti  Ti4352  1  0.43911487  0.35668403  0.50596219  1.0
  Ti  Ti4353  1  0.43911487  0.52335070  0.50596219  1.0
  Ti  Ti4354  1  0.43911487  0.69001737  0.50596219  1.0
  Ti  Ti4355  1  0.43911487  0.85668403  0.50596219  1.0
  Ti  Ti4356  1  0.52244820  0.02335070  0.50596219  1.0
  Ti  Ti4357  1  0.52244820  0.19001737  0.50596219  1.0
  Ti  Ti4358  1  0.52244820  0.35668403  0.50596219  1.0
  Ti  Ti4359  1  0.52244820  0.52335070  0.50596219  1.0
  Ti  Ti4360  1  0.52244820  0.69001737  0.50596219  1.0
  Ti  Ti4361  1  0.52244820  0.85668403  0.50596219  1.0
  Ti  Ti4362  1  0.60578153  0.02335070  0.50596219  1.0
  Ti  Ti4363  1  0.60578153  0.19001737  0.50596219  1.0
  Ti  Ti4364  1  0.60578153  0.35668403  0.50596219  1.0
  Ti  Ti4365  1  0.60578153  0.52335070  0.50596219  1.0
  Ti  Ti4366  1  0.60578153  0.69001737  0.50596219  1.0
  Ti  Ti4367  1  0.60578153  0.85668403  0.50596219  1.0
  Ti  Ti4368  1  0.68911487  0.02335070  0.50596219  1.0
  Ti  Ti4369  1  0.68911487  0.19001737  0.50596219  1.0
  Ti  Ti4370  1  0.68911487  0.35668403  0.50596219  1.0
  Ti  Ti4371  1  0.68911487  0.52335070  0.50596219  1.0
  Ti  Ti4372  1  0.68911487  0.69001737  0.50596219  1.0
  Ti  Ti4373  1  0.68911487  0.85668403  0.50596219  1.0
  Ti  Ti4374  1  0.77244820  0.02335070  0.50596219  1.0
  Ti  Ti4375  1  0.77244820  0.19001737  0.50596219  1.0
  Ti  Ti4376  1  0.77244820  0.35668403  0.50596219  1.0
  Ti  Ti4377  1  0.77244820  0.52335070  0.50596219  1.0
  Ti  Ti4378  1  0.77244820  0.69001737  0.50596219  1.0
  Ti  Ti4379  1  0.77244820  0.85668403  0.50596219  1.0
  Ti  Ti4380  1  0.85578153  0.02335070  0.50596219  1.0
  Ti  Ti4381  1  0.85578153  0.19001737  0.50596219  1.0
  Ti  Ti4382  1  0.85578153  0.35668403  0.50596219  1.0
  Ti  Ti4383  1  0.85578153  0.52335070  0.50596219  1.0
  Ti  Ti4384  1  0.85578153  0.69001737  0.50596219  1.0
  Ti  Ti4385  1  0.85578153  0.85668403  0.50596219  1.0
  Ti  Ti4386  1  0.93911487  0.02335070  0.50596219  1.0
  Ti  Ti4387  1  0.93911487  0.19001737  0.50596219  1.0
  Ti  Ti4388  1  0.93911487  0.35668403  0.50596219  1.0
  Ti  Ti4389  1  0.93911487  0.52335070  0.50596219  1.0
  Ti  Ti4390  1  0.93911487  0.69001737  0.50596219  1.0
  Ti  Ti4391  1  0.93911487  0.85668403  0.50596219  1.0
  Ti  Ti4392  1  0.08197201  0.01144594  0.57739076  1.0
  Ti  Ti4393  1  0.08197201  0.17811261  0.57739076  1.0
  Ti  Ti4394  1  0.08197201  0.34477927  0.57739076  1.0
  Ti  Ti4395  1  0.08197201  0.51144594  0.57739076  1.0
  Ti  Ti4396  1  0.08197201  0.67811261  0.57739076  1.0
  Ti  Ti4397  1  0.08197201  0.84477927  0.57739076  1.0
  Ti  Ti4398  1  0.16530534  0.01144594  0.57739076  1.0
  Ti  Ti4399  1  0.16530534  0.17811261  0.57739076  1.0
  Ti  Ti4400  1  0.16530534  0.34477927  0.57739076  1.0
  Ti  Ti4401  1  0.16530534  0.51144594  0.57739076  1.0
  Ti  Ti4402  1  0.16530534  0.67811261  0.57739076  1.0
  Ti  Ti4403  1  0.16530534  0.84477927  0.57739076  1.0
  Ti  Ti4404  1  0.24863867  0.01144594  0.57739076  1.0
  Ti  Ti4405  1  0.24863867  0.17811261  0.57739076  1.0
  Ti  Ti4406  1  0.24863867  0.34477927  0.57739076  1.0
  Ti  Ti4407  1  0.24863867  0.51144594  0.57739076  1.0
  Ti  Ti4408  1  0.24863867  0.67811261  0.57739076  1.0
  Ti  Ti4409  1  0.24863867  0.84477927  0.57739076  1.0
  Ti  Ti4410  1  0.33197201  0.01144594  0.57739076  1.0
  Ti  Ti4411  1  0.33197201  0.17811261  0.57739076  1.0
  Ti  Ti4412  1  0.33197201  0.34477927  0.57739076  1.0
  Ti  Ti4413  1  0.33197201  0.51144594  0.57739076  1.0
  Ti  Ti4414  1  0.33197201  0.67811261  0.57739076  1.0
  Ti  Ti4415  1  0.33197201  0.84477927  0.57739076  1.0
  Ti  Ti4416  1  0.41530534  0.01144594  0.57739076  1.0
  Ti  Ti4417  1  0.41530534  0.17811261  0.57739076  1.0
  Ti  Ti4418  1  0.41530534  0.34477927  0.57739076  1.0
  Ti  Ti4419  1  0.41530534  0.51144594  0.57739076  1.0
  Ti  Ti4420  1  0.41530534  0.67811261  0.57739076  1.0
  Ti  Ti4421  1  0.41530534  0.84477927  0.57739076  1.0
  Ti  Ti4422  1  0.49863867  0.01144594  0.57739076  1.0
  Ti  Ti4423  1  0.49863867  0.17811261  0.57739076  1.0
  Ti  Ti4424  1  0.49863867  0.34477927  0.57739076  1.0
  Ti  Ti4425  1  0.49863867  0.51144594  0.57739076  1.0
  Ti  Ti4426  1  0.49863867  0.67811261  0.57739076  1.0
  Ti  Ti4427  1  0.49863867  0.84477927  0.57739076  1.0
  Ti  Ti4428  1  0.58197201  0.01144594  0.57739076  1.0
  Ti  Ti4429  1  0.58197201  0.17811261  0.57739076  1.0
  Ti  Ti4430  1  0.58197201  0.34477927  0.57739076  1.0
  Ti  Ti4431  1  0.58197201  0.51144594  0.57739076  1.0
  Ti  Ti4432  1  0.58197201  0.67811261  0.57739076  1.0
  Ti  Ti4433  1  0.58197201  0.84477927  0.57739076  1.0
  Ti  Ti4434  1  0.66530534  0.01144594  0.57739076  1.0
  Ti  Ti4435  1  0.66530534  0.17811261  0.57739076  1.0
  Ti  Ti4436  1  0.66530534  0.34477927  0.57739076  1.0
  Ti  Ti4437  1  0.66530534  0.51144594  0.57739076  1.0
  Ti  Ti4438  1  0.66530534  0.67811261  0.57739076  1.0
  Ti  Ti4439  1  0.66530534  0.84477927  0.57739076  1.0
  Ti  Ti4440  1  0.74863867  0.01144594  0.57739076  1.0
  Ti  Ti4441  1  0.74863867  0.17811261  0.57739076  1.0
  Ti  Ti4442  1  0.74863867  0.34477927  0.57739076  1.0
  Ti  Ti4443  1  0.74863867  0.51144594  0.57739076  1.0
  Ti  Ti4444  1  0.74863867  0.67811261  0.57739076  1.0
  Ti  Ti4445  1  0.74863867  0.84477927  0.57739076  1.0
  Ti  Ti4446  1  0.83197201  0.01144594  0.57739076  1.0
  Ti  Ti4447  1  0.83197201  0.17811261  0.57739076  1.0
  Ti  Ti4448  1  0.83197201  0.34477927  0.57739076  1.0
  Ti  Ti4449  1  0.83197201  0.51144594  0.57739076  1.0
  Ti  Ti4450  1  0.83197201  0.67811261  0.57739076  1.0
  Ti  Ti4451  1  0.83197201  0.84477927  0.57739076  1.0
  Ti  Ti4452  1  0.91530534  0.01144594  0.57739076  1.0
  Ti  Ti4453  1  0.91530534  0.17811261  0.57739076  1.0
  Ti  Ti4454  1  0.91530534  0.34477927  0.57739076  1.0
  Ti  Ti4455  1  0.91530534  0.51144594  0.57739076  1.0
  Ti  Ti4456  1  0.91530534  0.67811261  0.57739076  1.0
  Ti  Ti4457  1  0.91530534  0.84477927  0.57739076  1.0
  Ti  Ti4458  1  0.99863867  0.01144594  0.57739076  1.0
  Ti  Ti4459  1  0.99863867  0.17811261  0.57739076  1.0
  Ti  Ti4460  1  0.99863867  0.34477927  0.57739076  1.0
  Ti  Ti4461  1  0.99863867  0.51144594  0.57739076  1.0
  Ti  Ti4462  1  0.99863867  0.67811261  0.57739076  1.0
  Ti  Ti4463  1  0.99863867  0.84477927  0.57739076  1.0
  Ti  Ti4464  1  0.06190881  0.11883512  0.64146475  1.0
  Ti  Ti4465  1  0.06190881  0.28550179  0.64146475  1.0
  Ti  Ti4466  1  0.06190881  0.45216846  0.64146475  1.0
  Ti  Ti4467  1  0.06190881  0.61883513  0.64146475  1.0
  Ti  Ti4468  1  0.06190881  0.78550179  0.64146475  1.0
  Ti  Ti4469  1  0.06190881  0.95216846  0.64146475  1.0
  Ti  Ti4470  1  0.14524215  0.11883512  0.64146475  1.0
  Ti  Ti4471  1  0.14524215  0.28550179  0.64146475  1.0
  Ti  Ti4472  1  0.14524215  0.45216846  0.64146475  1.0
  Ti  Ti4473  1  0.14524215  0.61883513  0.64146475  1.0
  Ti  Ti4474  1  0.14524215  0.78550179  0.64146475  1.0
  Ti  Ti4475  1  0.14524215  0.95216846  0.64146475  1.0
  Ti  Ti4476  1  0.22857548  0.11883512  0.64146475  1.0
  Ti  Ti4477  1  0.22857548  0.28550179  0.64146475  1.0
  Ti  Ti4478  1  0.22857548  0.45216846  0.64146475  1.0
  Ti  Ti4479  1  0.22857548  0.61883513  0.64146475  1.0
  Ti  Ti4480  1  0.22857548  0.78550179  0.64146475  1.0
  Ti  Ti4481  1  0.22857548  0.95216846  0.64146475  1.0
  Ti  Ti4482  1  0.31190881  0.11883512  0.64146475  1.0
  Ti  Ti4483  1  0.31190881  0.28550179  0.64146475  1.0
  Ti  Ti4484  1  0.31190882  0.45216846  0.64146475  1.0
  Ti  Ti4485  1  0.31190881  0.61883513  0.64146475  1.0
  Ti  Ti4486  1  0.31190882  0.78550179  0.64146475  1.0
  Ti  Ti4487  1  0.31190881  0.95216846  0.64146475  1.0
  Ti  Ti4488  1  0.39524215  0.11883512  0.64146475  1.0
  Ti  Ti4489  1  0.39524215  0.28550179  0.64146475  1.0
  Ti  Ti4490  1  0.39524215  0.45216846  0.64146475  1.0
  Ti  Ti4491  1  0.39524215  0.61883513  0.64146475  1.0
  Ti  Ti4492  1  0.39524215  0.78550179  0.64146475  1.0
  Ti  Ti4493  1  0.39524215  0.95216846  0.64146475  1.0
  Ti  Ti4494  1  0.47857548  0.11883512  0.64146475  1.0
  Ti  Ti4495  1  0.47857548  0.28550179  0.64146475  1.0
  Ti  Ti4496  1  0.47857548  0.45216846  0.64146475  1.0
  Ti  Ti4497  1  0.47857548  0.61883513  0.64146475  1.0
  Ti  Ti4498  1  0.47857548  0.78550179  0.64146475  1.0
  Ti  Ti4499  1  0.47857548  0.95216846  0.64146475  1.0
  Ti  Ti4500  1  0.56190881  0.11883512  0.64146475  1.0
  Ti  Ti4501  1  0.56190882  0.28550179  0.64146475  1.0
  Ti  Ti4502  1  0.56190881  0.45216846  0.64146475  1.0
  Ti  Ti4503  1  0.56190881  0.61883513  0.64146475  1.0
  Ti  Ti4504  1  0.56190882  0.78550179  0.64146475  1.0
  Ti  Ti4505  1  0.56190881  0.95216846  0.64146475  1.0
  Ti  Ti4506  1  0.64524215  0.11883512  0.64146475  1.0
  Ti  Ti4507  1  0.64524215  0.28550179  0.64146475  1.0
  Ti  Ti4508  1  0.64524215  0.45216846  0.64146475  1.0
  Ti  Ti4509  1  0.64524215  0.61883513  0.64146475  1.0
  Ti  Ti4510  1  0.64524215  0.78550179  0.64146475  1.0
  Ti  Ti4511  1  0.64524215  0.95216846  0.64146475  1.0
  Ti  Ti4512  1  0.72857548  0.11883512  0.64146475  1.0
  Ti  Ti4513  1  0.72857548  0.28550179  0.64146475  1.0
  Ti  Ti4514  1  0.72857548  0.45216846  0.64146475  1.0
  Ti  Ti4515  1  0.72857548  0.61883513  0.64146475  1.0
  Ti  Ti4516  1  0.72857548  0.78550179  0.64146475  1.0
  Ti  Ti4517  1  0.72857548  0.95216846  0.64146475  1.0
  Ti  Ti4518  1  0.81190881  0.11883512  0.64146475  1.0
  Ti  Ti4519  1  0.81190881  0.28550179  0.64146475  1.0
  Ti  Ti4520  1  0.81190881  0.45216846  0.64146475  1.0
  Ti  Ti4521  1  0.81190881  0.61883513  0.64146475  1.0
  Ti  Ti4522  1  0.81190881  0.78550179  0.64146475  1.0
  Ti  Ti4523  1  0.81190881  0.95216846  0.64146475  1.0
  Ti  Ti4524  1  0.89524215  0.11883512  0.64146475  1.0
  Ti  Ti4525  1  0.89524215  0.28550179  0.64146475  1.0
  Ti  Ti4526  1  0.89524215  0.45216846  0.64146475  1.0
  Ti  Ti4527  1  0.89524215  0.61883513  0.64146475  1.0
  Ti  Ti4528  1  0.89524215  0.78550179  0.64146475  1.0
  Ti  Ti4529  1  0.89524215  0.95216846  0.64146475  1.0
  Ti  Ti4530  1  0.97857548  0.11883512  0.64146475  1.0
  Ti  Ti4531  1  0.97857548  0.28550179  0.64146475  1.0
  Ti  Ti4532  1  0.97857548  0.45216846  0.64146475  1.0
  Ti  Ti4533  1  0.97857548  0.61883513  0.64146475  1.0
  Ti  Ti4534  1  0.97857548  0.78550179  0.64146475  1.0
  Ti  Ti4535  1  0.97857548  0.95216846  0.64146475  1.0
  Ti  Ti4536  1  0.00238501  0.13073989  0.57003618  1.0
  Ti  Ti4537  1  0.00238501  0.29740655  0.57003618  1.0
  Ti  Ti4538  1  0.00238501  0.46407322  0.57003618  1.0
  Ti  Ti4539  1  0.00238501  0.63073989  0.57003618  1.0
  Ti  Ti4540  1  0.00238501  0.79740655  0.57003618  1.0
  Ti  Ti4541  1  0.00238501  0.96407322  0.57003618  1.0
  Ti  Ti4542  1  0.08571834  0.13073989  0.57003618  1.0
  Ti  Ti4543  1  0.08571834  0.29740655  0.57003618  1.0
  Ti  Ti4544  1  0.08571834  0.46407322  0.57003618  1.0
  Ti  Ti4545  1  0.08571834  0.63073989  0.57003618  1.0
  Ti  Ti4546  1  0.08571834  0.79740655  0.57003618  1.0
  Ti  Ti4547  1  0.08571834  0.96407322  0.57003618  1.0
  Ti  Ti4548  1  0.16905167  0.13073989  0.57003618  1.0
  Ti  Ti4549  1  0.16905167  0.29740655  0.57003618  1.0
  Ti  Ti4550  1  0.16905167  0.46407322  0.57003618  1.0
  Ti  Ti4551  1  0.16905167  0.63073989  0.57003618  1.0
  Ti  Ti4552  1  0.16905167  0.79740655  0.57003618  1.0
  Ti  Ti4553  1  0.16905167  0.96407322  0.57003618  1.0
  Ti  Ti4554  1  0.25238501  0.13073989  0.57003618  1.0
  Ti  Ti4555  1  0.25238501  0.29740655  0.57003618  1.0
  Ti  Ti4556  1  0.25238501  0.46407322  0.57003618  1.0
  Ti  Ti4557  1  0.25238501  0.63073989  0.57003618  1.0
  Ti  Ti4558  1  0.25238501  0.79740655  0.57003618  1.0
  Ti  Ti4559  1  0.25238501  0.96407322  0.57003618  1.0
  Ti  Ti4560  1  0.33571834  0.13073989  0.57003618  1.0
  Ti  Ti4561  1  0.33571834  0.29740655  0.57003618  1.0
  Ti  Ti4562  1  0.33571834  0.46407322  0.57003618  1.0
  Ti  Ti4563  1  0.33571834  0.63073989  0.57003618  1.0
  Ti  Ti4564  1  0.33571834  0.79740655  0.57003618  1.0
  Ti  Ti4565  1  0.33571834  0.96407322  0.57003618  1.0
  Ti  Ti4566  1  0.41905167  0.13073989  0.57003618  1.0
  Ti  Ti4567  1  0.41905167  0.29740655  0.57003618  1.0
  Ti  Ti4568  1  0.41905167  0.46407322  0.57003618  1.0
  Ti  Ti4569  1  0.41905167  0.63073989  0.57003618  1.0
  Ti  Ti4570  1  0.41905167  0.79740655  0.57003618  1.0
  Ti  Ti4571  1  0.41905167  0.96407322  0.57003618  1.0
  Ti  Ti4572  1  0.50238501  0.13073989  0.57003618  1.0
  Ti  Ti4573  1  0.50238501  0.29740655  0.57003618  1.0
  Ti  Ti4574  1  0.50238501  0.46407322  0.57003618  1.0
  Ti  Ti4575  1  0.50238501  0.63073989  0.57003618  1.0
  Ti  Ti4576  1  0.50238501  0.79740655  0.57003618  1.0
  Ti  Ti4577  1  0.50238501  0.96407322  0.57003618  1.0
  Ti  Ti4578  1  0.58571834  0.13073989  0.57003618  1.0
  Ti  Ti4579  1  0.58571834  0.29740655  0.57003618  1.0
  Ti  Ti4580  1  0.58571834  0.46407322  0.57003618  1.0
  Ti  Ti4581  1  0.58571834  0.63073989  0.57003618  1.0
  Ti  Ti4582  1  0.58571834  0.79740655  0.57003618  1.0
  Ti  Ti4583  1  0.58571834  0.96407322  0.57003618  1.0
  Ti  Ti4584  1  0.66905167  0.13073989  0.57003618  1.0
  Ti  Ti4585  1  0.66905167  0.29740655  0.57003618  1.0
  Ti  Ti4586  1  0.66905167  0.46407322  0.57003618  1.0
  Ti  Ti4587  1  0.66905167  0.63073989  0.57003618  1.0
  Ti  Ti4588  1  0.66905167  0.79740655  0.57003618  1.0
  Ti  Ti4589  1  0.66905167  0.96407322  0.57003618  1.0
  Ti  Ti4590  1  0.75238501  0.13073989  0.57003618  1.0
  Ti  Ti4591  1  0.75238501  0.29740655  0.57003618  1.0
  Ti  Ti4592  1  0.75238501  0.46407322  0.57003618  1.0
  Ti  Ti4593  1  0.75238501  0.63073989  0.57003618  1.0
  Ti  Ti4594  1  0.75238501  0.79740655  0.57003618  1.0
  Ti  Ti4595  1  0.75238501  0.96407322  0.57003618  1.0
  Ti  Ti4596  1  0.83571834  0.13073989  0.57003618  1.0
  Ti  Ti4597  1  0.83571834  0.29740655  0.57003618  1.0
  Ti  Ti4598  1  0.83571834  0.46407322  0.57003618  1.0
  Ti  Ti4599  1  0.83571834  0.63073989  0.57003618  1.0
  Ti  Ti4600  1  0.83571834  0.79740655  0.57003618  1.0
  Ti  Ti4601  1  0.83571834  0.96407322  0.57003618  1.0
  Ti  Ti4602  1  0.91905167  0.13073989  0.57003618  1.0
  Ti  Ti4603  1  0.91905167  0.29740655  0.57003618  1.0
  Ti  Ti4604  1  0.91905167  0.46407322  0.57003618  1.0
  Ti  Ti4605  1  0.91905167  0.63073989  0.57003618  1.0
  Ti  Ti4606  1  0.91905167  0.79740655  0.57003618  1.0
  Ti  Ti4607  1  0.91905167  0.96407322  0.57003618  1.0
  Ti  Ti4608  1  0.01923420  0.06727033  0.51588120  1.0
  Ti  Ti4609  1  0.01923420  0.23393700  0.51588120  1.0
  Ti  Ti4610  1  0.01923420  0.40060367  0.51588120  1.0
  Ti  Ti4611  1  0.01923420  0.56727033  0.51588120  1.0
  Ti  Ti4612  1  0.01923420  0.73393700  0.51588120  1.0
  Ti  Ti4613  1  0.01923420  0.90060367  0.51588120  1.0
  Ti  Ti4614  1  0.10256754  0.06727033  0.51588120  1.0
  Ti  Ti4615  1  0.10256754  0.23393700  0.51588120  1.0
  Ti  Ti4616  1  0.10256754  0.40060367  0.51588120  1.0
  Ti  Ti4617  1  0.10256754  0.56727033  0.51588120  1.0
  Ti  Ti4618  1  0.10256754  0.73393700  0.51588120  1.0
  Ti  Ti4619  1  0.10256754  0.90060367  0.51588120  1.0
  Ti  Ti4620  1  0.18590087  0.06727033  0.51588120  1.0
  Ti  Ti4621  1  0.18590087  0.23393700  0.51588120  1.0
  Ti  Ti4622  1  0.18590087  0.40060367  0.51588120  1.0
  Ti  Ti4623  1  0.18590087  0.56727033  0.51588120  1.0
  Ti  Ti4624  1  0.18590087  0.73393700  0.51588120  1.0
  Ti  Ti4625  1  0.18590087  0.90060367  0.51588120  1.0
  Ti  Ti4626  1  0.26923420  0.06727033  0.51588120  1.0
  Ti  Ti4627  1  0.26923420  0.23393700  0.51588120  1.0
  Ti  Ti4628  1  0.26923420  0.40060367  0.51588120  1.0
  Ti  Ti4629  1  0.26923420  0.56727033  0.51588120  1.0
  Ti  Ti4630  1  0.26923420  0.73393700  0.51588120  1.0
  Ti  Ti4631  1  0.26923420  0.90060367  0.51588120  1.0
  Ti  Ti4632  1  0.35256754  0.06727033  0.51588120  1.0
  Ti  Ti4633  1  0.35256754  0.23393700  0.51588120  1.0
  Ti  Ti4634  1  0.35256754  0.40060367  0.51588120  1.0
  Ti  Ti4635  1  0.35256754  0.56727033  0.51588120  1.0
  Ti  Ti4636  1  0.35256754  0.73393700  0.51588120  1.0
  Ti  Ti4637  1  0.35256754  0.90060367  0.51588120  1.0
  Ti  Ti4638  1  0.43590087  0.06727033  0.51588120  1.0
  Ti  Ti4639  1  0.43590087  0.23393700  0.51588120  1.0
  Ti  Ti4640  1  0.43590087  0.40060367  0.51588120  1.0
  Ti  Ti4641  1  0.43590087  0.56727033  0.51588120  1.0
  Ti  Ti4642  1  0.43590087  0.73393700  0.51588120  1.0
  Ti  Ti4643  1  0.43590087  0.90060367  0.51588120  1.0
  Ti  Ti4644  1  0.51923420  0.06727033  0.51588120  1.0
  Ti  Ti4645  1  0.51923420  0.23393700  0.51588120  1.0
  Ti  Ti4646  1  0.51923420  0.40060367  0.51588120  1.0
  Ti  Ti4647  1  0.51923420  0.56727033  0.51588120  1.0
  Ti  Ti4648  1  0.51923420  0.73393700  0.51588120  1.0
  Ti  Ti4649  1  0.51923420  0.90060367  0.51588120  1.0
  Ti  Ti4650  1  0.60256754  0.06727033  0.51588120  1.0
  Ti  Ti4651  1  0.60256754  0.23393700  0.51588120  1.0
  Ti  Ti4652  1  0.60256754  0.40060367  0.51588120  1.0
  Ti  Ti4653  1  0.60256754  0.56727033  0.51588120  1.0
  Ti  Ti4654  1  0.60256754  0.73393700  0.51588120  1.0
  Ti  Ti4655  1  0.60256754  0.90060367  0.51588120  1.0
  Ti  Ti4656  1  0.68590087  0.06727033  0.51588120  1.0
  Ti  Ti4657  1  0.68590087  0.23393700  0.51588120  1.0
  Ti  Ti4658  1  0.68590087  0.40060367  0.51588120  1.0
  Ti  Ti4659  1  0.68590087  0.56727033  0.51588120  1.0
  Ti  Ti4660  1  0.68590087  0.73393700  0.51588120  1.0
  Ti  Ti4661  1  0.68590087  0.90060367  0.51588120  1.0
  Ti  Ti4662  1  0.76923420  0.06727033  0.51588120  1.0
  Ti  Ti4663  1  0.76923420  0.23393700  0.51588120  1.0
  Ti  Ti4664  1  0.76923420  0.40060367  0.51588120  1.0
  Ti  Ti4665  1  0.76923420  0.56727033  0.51588120  1.0
  Ti  Ti4666  1  0.76923420  0.73393700  0.51588120  1.0
  Ti  Ti4667  1  0.76923420  0.90060367  0.51588120  1.0
  Ti  Ti4668  1  0.85256754  0.06727033  0.51588120  1.0
  Ti  Ti4669  1  0.85256754  0.23393700  0.51588120  1.0
  Ti  Ti4670  1  0.85256754  0.40060367  0.51588120  1.0
  Ti  Ti4671  1  0.85256754  0.56727033  0.51588120  1.0
  Ti  Ti4672  1  0.85256754  0.73393700  0.51588120  1.0
  Ti  Ti4673  1  0.85256754  0.90060367  0.51588120  1.0
  Ti  Ti4674  1  0.93590087  0.06727033  0.51588120  1.0
  Ti  Ti4675  1  0.93590087  0.23393700  0.51588120  1.0
  Ti  Ti4676  1  0.93590087  0.40060367  0.51588120  1.0
  Ti  Ti4677  1  0.93590087  0.56727033  0.51588120  1.0
  Ti  Ti4678  1  0.93590087  0.73393700  0.51588120  1.0
  Ti  Ti4679  1  0.93590087  0.90060367  0.51588120  1.0
  Ti  Ti4680  1  0.07875801  0.05536557  0.58730977  1.0
  Ti  Ti4681  1  0.07875801  0.22203224  0.58730977  1.0
  Ti  Ti4682  1  0.07875801  0.38869890  0.58730977  1.0
  Ti  Ti4683  1  0.07875801  0.55536557  0.58730977  1.0
  Ti  Ti4684  1  0.07875801  0.72203224  0.58730977  1.0
  Ti  Ti4685  1  0.07875801  0.88869890  0.58730977  1.0
  Ti  Ti4686  1  0.16209135  0.05536557  0.58730977  1.0
  Ti  Ti4687  1  0.16209135  0.22203224  0.58730977  1.0
  Ti  Ti4688  1  0.16209135  0.38869890  0.58730977  1.0
  Ti  Ti4689  1  0.16209135  0.55536557  0.58730977  1.0
  Ti  Ti4690  1  0.16209135  0.72203224  0.58730977  1.0
  Ti  Ti4691  1  0.16209135  0.88869890  0.58730977  1.0
  Ti  Ti4692  1  0.24542468  0.05536557  0.58730977  1.0
  Ti  Ti4693  1  0.24542468  0.22203224  0.58730977  1.0
  Ti  Ti4694  1  0.24542468  0.38869890  0.58730977  1.0
  Ti  Ti4695  1  0.24542468  0.55536557  0.58730977  1.0
  Ti  Ti4696  1  0.24542468  0.72203224  0.58730977  1.0
  Ti  Ti4697  1  0.24542468  0.88869890  0.58730977  1.0
  Ti  Ti4698  1  0.32875801  0.05536557  0.58730977  1.0
  Ti  Ti4699  1  0.32875801  0.22203224  0.58730977  1.0
  Ti  Ti4700  1  0.32875801  0.38869890  0.58730977  1.0
  Ti  Ti4701  1  0.32875801  0.55536557  0.58730977  1.0
  Ti  Ti4702  1  0.32875801  0.72203224  0.58730977  1.0
  Ti  Ti4703  1  0.32875801  0.88869890  0.58730977  1.0
  Ti  Ti4704  1  0.41209135  0.05536557  0.58730977  1.0
  Ti  Ti4705  1  0.41209135  0.22203224  0.58730977  1.0
  Ti  Ti4706  1  0.41209135  0.38869890  0.58730977  1.0
  Ti  Ti4707  1  0.41209135  0.55536557  0.58730977  1.0
  Ti  Ti4708  1  0.41209135  0.72203224  0.58730977  1.0
  Ti  Ti4709  1  0.41209135  0.88869890  0.58730977  1.0
  Ti  Ti4710  1  0.49542468  0.05536557  0.58730977  1.0
  Ti  Ti4711  1  0.49542468  0.22203224  0.58730977  1.0
  Ti  Ti4712  1  0.49542468  0.38869890  0.58730977  1.0
  Ti  Ti4713  1  0.49542468  0.55536557  0.58730977  1.0
  Ti  Ti4714  1  0.49542468  0.72203224  0.58730977  1.0
  Ti  Ti4715  1  0.49542468  0.88869890  0.58730977  1.0
  Ti  Ti4716  1  0.57875801  0.05536557  0.58730977  1.0
  Ti  Ti4717  1  0.57875801  0.22203224  0.58730977  1.0
  Ti  Ti4718  1  0.57875801  0.38869890  0.58730977  1.0
  Ti  Ti4719  1  0.57875801  0.55536557  0.58730977  1.0
  Ti  Ti4720  1  0.57875801  0.72203224  0.58730977  1.0
  Ti  Ti4721  1  0.57875801  0.88869890  0.58730977  1.0
  Ti  Ti4722  1  0.66209135  0.05536557  0.58730977  1.0
  Ti  Ti4723  1  0.66209135  0.22203224  0.58730977  1.0
  Ti  Ti4724  1  0.66209135  0.38869890  0.58730977  1.0
  Ti  Ti4725  1  0.66209135  0.55536557  0.58730977  1.0
  Ti  Ti4726  1  0.66209135  0.72203224  0.58730977  1.0
  Ti  Ti4727  1  0.66209135  0.88869890  0.58730977  1.0
  Ti  Ti4728  1  0.74542468  0.05536557  0.58730977  1.0
  Ti  Ti4729  1  0.74542468  0.22203224  0.58730977  1.0
  Ti  Ti4730  1  0.74542468  0.38869890  0.58730977  1.0
  Ti  Ti4731  1  0.74542468  0.55536557  0.58730977  1.0
  Ti  Ti4732  1  0.74542468  0.72203224  0.58730977  1.0
  Ti  Ti4733  1  0.74542468  0.88869890  0.58730977  1.0
  Ti  Ti4734  1  0.82875801  0.05536557  0.58730977  1.0
  Ti  Ti4735  1  0.82875801  0.22203224  0.58730977  1.0
  Ti  Ti4736  1  0.82875801  0.38869890  0.58730977  1.0
  Ti  Ti4737  1  0.82875801  0.55536557  0.58730977  1.0
  Ti  Ti4738  1  0.82875801  0.72203224  0.58730977  1.0
  Ti  Ti4739  1  0.82875801  0.88869890  0.58730977  1.0
  Ti  Ti4740  1  0.91209135  0.05536557  0.58730977  1.0
  Ti  Ti4741  1  0.91209135  0.22203224  0.58730977  1.0
  Ti  Ti4742  1  0.91209135  0.38869890  0.58730977  1.0
  Ti  Ti4743  1  0.91209135  0.55536557  0.58730977  1.0
  Ti  Ti4744  1  0.91209135  0.72203224  0.58730977  1.0
  Ti  Ti4745  1  0.91209135  0.88869890  0.58730977  1.0
  Ti  Ti4746  1  0.99542468  0.05536557  0.58730977  1.0
  Ti  Ti4747  1  0.99542468  0.22203224  0.58730977  1.0
  Ti  Ti4748  1  0.99542468  0.38869890  0.58730977  1.0
  Ti  Ti4749  1  0.99542468  0.55536557  0.58730977  1.0
  Ti  Ti4750  1  0.99542468  0.72203224  0.58730977  1.0
  Ti  Ti4751  1  0.99542468  0.88869890  0.58730977  1.0
  Ti  Ti4752  1  0.00161785  0.03938049  0.69719402  1.0
  Ti  Ti4753  1  0.00161785  0.20604715  0.69719402  1.0
  Ti  Ti4754  1  0.00161785  0.37271382  0.69719402  1.0
  Ti  Ti4755  1  0.00161785  0.53938049  0.69719402  1.0
  Ti  Ti4756  1  0.00161785  0.70604715  0.69719402  1.0
  Ti  Ti4757  1  0.00161785  0.87271382  0.69719402  1.0
  Ti  Ti4758  1  0.08495118  0.03938049  0.69719402  1.0
  Ti  Ti4759  1  0.08495118  0.20604715  0.69719402  1.0
  Ti  Ti4760  1  0.08495118  0.37271382  0.69719402  1.0
  Ti  Ti4761  1  0.08495118  0.53938049  0.69719402  1.0
  Ti  Ti4762  1  0.08495118  0.70604715  0.69719402  1.0
  Ti  Ti4763  1  0.08495118  0.87271382  0.69719402  1.0
  Ti  Ti4764  1  0.16828451  0.03938049  0.69719402  1.0
  Ti  Ti4765  1  0.16828451  0.20604715  0.69719402  1.0
  Ti  Ti4766  1  0.16828451  0.37271382  0.69719402  1.0
  Ti  Ti4767  1  0.16828451  0.53938049  0.69719402  1.0
  Ti  Ti4768  1  0.16828451  0.70604715  0.69719402  1.0
  Ti  Ti4769  1  0.16828451  0.87271382  0.69719402  1.0
  Ti  Ti4770  1  0.25161785  0.03938049  0.69719402  1.0
  Ti  Ti4771  1  0.25161785  0.20604715  0.69719402  1.0
  Ti  Ti4772  1  0.25161785  0.37271382  0.69719402  1.0
  Ti  Ti4773  1  0.25161785  0.53938049  0.69719402  1.0
  Ti  Ti4774  1  0.25161785  0.70604715  0.69719402  1.0
  Ti  Ti4775  1  0.25161785  0.87271382  0.69719402  1.0
  Ti  Ti4776  1  0.33495118  0.03938049  0.69719402  1.0
  Ti  Ti4777  1  0.33495118  0.20604715  0.69719402  1.0
  Ti  Ti4778  1  0.33495118  0.37271382  0.69719402  1.0
  Ti  Ti4779  1  0.33495118  0.53938049  0.69719402  1.0
  Ti  Ti4780  1  0.33495118  0.70604715  0.69719402  1.0
  Ti  Ti4781  1  0.33495118  0.87271382  0.69719402  1.0
  Ti  Ti4782  1  0.41828451  0.03938049  0.69719402  1.0
  Ti  Ti4783  1  0.41828451  0.20604715  0.69719402  1.0
  Ti  Ti4784  1  0.41828451  0.37271382  0.69719402  1.0
  Ti  Ti4785  1  0.41828451  0.53938049  0.69719402  1.0
  Ti  Ti4786  1  0.41828451  0.70604715  0.69719402  1.0
  Ti  Ti4787  1  0.41828451  0.87271382  0.69719402  1.0
  Ti  Ti4788  1  0.50161785  0.03938049  0.69719402  1.0
  Ti  Ti4789  1  0.50161785  0.20604715  0.69719402  1.0
  Ti  Ti4790  1  0.50161785  0.37271382  0.69719402  1.0
  Ti  Ti4791  1  0.50161785  0.53938049  0.69719402  1.0
  Ti  Ti4792  1  0.50161785  0.70604715  0.69719402  1.0
  Ti  Ti4793  1  0.50161785  0.87271382  0.69719402  1.0
  Ti  Ti4794  1  0.58495118  0.03938049  0.69719402  1.0
  Ti  Ti4795  1  0.58495118  0.20604715  0.69719402  1.0
  Ti  Ti4796  1  0.58495118  0.37271382  0.69719402  1.0
  Ti  Ti4797  1  0.58495118  0.53938049  0.69719402  1.0
  Ti  Ti4798  1  0.58495118  0.70604715  0.69719402  1.0
  Ti  Ti4799  1  0.58495118  0.87271382  0.69719402  1.0
  Ti  Ti4800  1  0.66828451  0.03938049  0.69719402  1.0
  Ti  Ti4801  1  0.66828451  0.20604715  0.69719402  1.0
  Ti  Ti4802  1  0.66828451  0.37271382  0.69719402  1.0
  Ti  Ti4803  1  0.66828451  0.53938049  0.69719402  1.0
  Ti  Ti4804  1  0.66828451  0.70604715  0.69719402  1.0
  Ti  Ti4805  1  0.66828451  0.87271382  0.69719402  1.0
  Ti  Ti4806  1  0.75161785  0.03938049  0.69719402  1.0
  Ti  Ti4807  1  0.75161785  0.20604715  0.69719402  1.0
  Ti  Ti4808  1  0.75161785  0.37271382  0.69719402  1.0
  Ti  Ti4809  1  0.75161785  0.53938049  0.69719402  1.0
  Ti  Ti4810  1  0.75161785  0.70604715  0.69719402  1.0
  Ti  Ti4811  1  0.75161785  0.87271382  0.69719402  1.0
  Ti  Ti4812  1  0.83495118  0.03938049  0.69719402  1.0
  Ti  Ti4813  1  0.83495118  0.20604715  0.69719402  1.0
  Ti  Ti4814  1  0.83495118  0.37271382  0.69719402  1.0
  Ti  Ti4815  1  0.83495118  0.53938049  0.69719402  1.0
  Ti  Ti4816  1  0.83495118  0.70604715  0.69719402  1.0
  Ti  Ti4817  1  0.83495118  0.87271382  0.69719402  1.0
  Ti  Ti4818  1  0.91828451  0.03938049  0.69719402  1.0
  Ti  Ti4819  1  0.91828451  0.20604715  0.69719402  1.0
  Ti  Ti4820  1  0.91828451  0.37271382  0.69719402  1.0
  Ti  Ti4821  1  0.91828451  0.53938049  0.69719402  1.0
  Ti  Ti4822  1  0.91828451  0.70604715  0.69719402  1.0
  Ti  Ti4823  1  0.91828451  0.87271382  0.69719402  1.0
  Ti  Ti4824  1  0.00686749  0.11332801  0.67564897  1.0
  Ti  Ti4825  1  0.00686749  0.27999468  0.67564897  1.0
  Ti  Ti4826  1  0.00686749  0.44666135  0.67564897  1.0
  Ti  Ti4827  1  0.00686749  0.61332801  0.67564897  1.0
  Ti  Ti4828  1  0.00686749  0.77999468  0.67564897  1.0
  Ti  Ti4829  1  0.00686749  0.94666135  0.67564897  1.0
  Ti  Ti4830  1  0.09020082  0.11332801  0.67564897  1.0
  Ti  Ti4831  1  0.09020082  0.27999468  0.67564897  1.0
  Ti  Ti4832  1  0.09020082  0.44666135  0.67564897  1.0
  Ti  Ti4833  1  0.09020082  0.61332801  0.67564897  1.0
  Ti  Ti4834  1  0.09020082  0.77999468  0.67564897  1.0
  Ti  Ti4835  1  0.09020082  0.94666135  0.67564897  1.0
  Ti  Ti4836  1  0.17353415  0.11332801  0.67564897  1.0
  Ti  Ti4837  1  0.17353415  0.27999468  0.67564897  1.0
  Ti  Ti4838  1  0.17353415  0.44666135  0.67564897  1.0
  Ti  Ti4839  1  0.17353415  0.61332801  0.67564897  1.0
  Ti  Ti4840  1  0.17353415  0.77999468  0.67564897  1.0
  Ti  Ti4841  1  0.17353415  0.94666135  0.67564897  1.0
  Ti  Ti4842  1  0.25686749  0.11332801  0.67564897  1.0
  Ti  Ti4843  1  0.25686749  0.27999468  0.67564897  1.0
  Ti  Ti4844  1  0.25686749  0.44666135  0.67564897  1.0
  Ti  Ti4845  1  0.25686749  0.61332801  0.67564897  1.0
  Ti  Ti4846  1  0.25686749  0.77999468  0.67564897  1.0
  Ti  Ti4847  1  0.25686749  0.94666135  0.67564897  1.0
  Ti  Ti4848  1  0.34020082  0.11332801  0.67564897  1.0
  Ti  Ti4849  1  0.34020082  0.27999468  0.67564897  1.0
  Ti  Ti4850  1  0.34020082  0.44666135  0.67564897  1.0
  Ti  Ti4851  1  0.34020082  0.61332801  0.67564897  1.0
  Ti  Ti4852  1  0.34020082  0.77999468  0.67564897  1.0
  Ti  Ti4853  1  0.34020082  0.94666135  0.67564897  1.0
  Ti  Ti4854  1  0.42353415  0.11332801  0.67564897  1.0
  Ti  Ti4855  1  0.42353415  0.27999468  0.67564897  1.0
  Ti  Ti4856  1  0.42353415  0.44666135  0.67564897  1.0
  Ti  Ti4857  1  0.42353415  0.61332801  0.67564897  1.0
  Ti  Ti4858  1  0.42353415  0.77999468  0.67564897  1.0
  Ti  Ti4859  1  0.42353415  0.94666135  0.67564897  1.0
  Ti  Ti4860  1  0.50686749  0.11332801  0.67564897  1.0
  Ti  Ti4861  1  0.50686749  0.27999468  0.67564897  1.0
  Ti  Ti4862  1  0.50686749  0.44666135  0.67564897  1.0
  Ti  Ti4863  1  0.50686749  0.61332801  0.67564897  1.0
  Ti  Ti4864  1  0.50686749  0.77999468  0.67564897  1.0
  Ti  Ti4865  1  0.50686749  0.94666135  0.67564897  1.0
  Ti  Ti4866  1  0.59020082  0.11332801  0.67564897  1.0
  Ti  Ti4867  1  0.59020082  0.27999468  0.67564897  1.0
  Ti  Ti4868  1  0.59020082  0.44666135  0.67564897  1.0
  Ti  Ti4869  1  0.59020082  0.61332801  0.67564897  1.0
  Ti  Ti4870  1  0.59020082  0.77999468  0.67564897  1.0
  Ti  Ti4871  1  0.59020082  0.94666135  0.67564897  1.0
  Ti  Ti4872  1  0.67353415  0.11332801  0.67564897  1.0
  Ti  Ti4873  1  0.67353415  0.27999468  0.67564897  1.0
  Ti  Ti4874  1  0.67353415  0.44666135  0.67564897  1.0
  Ti  Ti4875  1  0.67353415  0.61332801  0.67564897  1.0
  Ti  Ti4876  1  0.67353415  0.77999468  0.67564897  1.0
  Ti  Ti4877  1  0.67353415  0.94666135  0.67564897  1.0
  Ti  Ti4878  1  0.75686749  0.11332801  0.67564897  1.0
  Ti  Ti4879  1  0.75686749  0.27999468  0.67564897  1.0
  Ti  Ti4880  1  0.75686749  0.44666135  0.67564897  1.0
  Ti  Ti4881  1  0.75686749  0.61332801  0.67564897  1.0
  Ti  Ti4882  1  0.75686749  0.77999468  0.67564897  1.0
  Ti  Ti4883  1  0.75686749  0.94666135  0.67564897  1.0
  Ti  Ti4884  1  0.84020082  0.11332801  0.67564897  1.0
  Ti  Ti4885  1  0.84020082  0.27999468  0.67564897  1.0
  Ti  Ti4886  1  0.84020082  0.44666135  0.67564897  1.0
  Ti  Ti4887  1  0.84020082  0.61332801  0.67564897  1.0
  Ti  Ti4888  1  0.84020082  0.77999468  0.67564897  1.0
  Ti  Ti4889  1  0.84020082  0.94666135  0.67564897  1.0
  Ti  Ti4890  1  0.92353415  0.11332801  0.67564897  1.0
  Ti  Ti4891  1  0.92353415  0.27999468  0.67564897  1.0
  Ti  Ti4892  1  0.92353415  0.44666135  0.67564897  1.0
  Ti  Ti4893  1  0.92353415  0.61332801  0.67564897  1.0
  Ti  Ti4894  1  0.92353415  0.77999468  0.67564897  1.0
  Ti  Ti4895  1  0.92353415  0.94666135  0.67564897  1.0
  Ti  Ti4896  1  0.00605970  0.15980128  0.68604718  1.0
  Ti  Ti4897  1  0.00605970  0.32646794  0.68604718  1.0
  Ti  Ti4898  1  0.00605970  0.49313461  0.68604718  1.0
  Ti  Ti4899  1  0.00605970  0.65980128  0.68604718  1.0
  Ti  Ti4900  1  0.00605970  0.82646794  0.68604718  1.0
  Ti  Ti4901  1  0.00605970  0.99313461  0.68604718  1.0
  Ti  Ti4902  1  0.08939303  0.15980128  0.68604718  1.0
  Ti  Ti4903  1  0.08939303  0.32646794  0.68604718  1.0
  Ti  Ti4904  1  0.08939303  0.49313461  0.68604718  1.0
  Ti  Ti4905  1  0.08939303  0.65980128  0.68604718  1.0
  Ti  Ti4906  1  0.08939303  0.82646794  0.68604718  1.0
  Ti  Ti4907  1  0.08939303  0.99313461  0.68604718  1.0
  Ti  Ti4908  1  0.17272637  0.15980128  0.68604718  1.0
  Ti  Ti4909  1  0.17272637  0.32646794  0.68604718  1.0
  Ti  Ti4910  1  0.17272637  0.49313461  0.68604718  1.0
  Ti  Ti4911  1  0.17272637  0.65980128  0.68604718  1.0
  Ti  Ti4912  1  0.17272637  0.82646794  0.68604718  1.0
  Ti  Ti4913  1  0.17272637  0.99313461  0.68604718  1.0
  Ti  Ti4914  1  0.25605970  0.15980128  0.68604718  1.0
  Ti  Ti4915  1  0.25605970  0.32646794  0.68604718  1.0
  Ti  Ti4916  1  0.25605970  0.49313461  0.68604718  1.0
  Ti  Ti4917  1  0.25605970  0.65980128  0.68604718  1.0
  Ti  Ti4918  1  0.25605970  0.82646794  0.68604718  1.0
  Ti  Ti4919  1  0.25605970  0.99313461  0.68604718  1.0
  Ti  Ti4920  1  0.33939303  0.15980128  0.68604718  1.0
  Ti  Ti4921  1  0.33939303  0.32646794  0.68604718  1.0
  Ti  Ti4922  1  0.33939303  0.49313461  0.68604718  1.0
  Ti  Ti4923  1  0.33939303  0.65980128  0.68604718  1.0
  Ti  Ti4924  1  0.33939303  0.82646794  0.68604718  1.0
  Ti  Ti4925  1  0.33939303  0.99313461  0.68604718  1.0
  Ti  Ti4926  1  0.42272637  0.15980128  0.68604718  1.0
  Ti  Ti4927  1  0.42272637  0.32646794  0.68604718  1.0
  Ti  Ti4928  1  0.42272637  0.49313461  0.68604718  1.0
  Ti  Ti4929  1  0.42272637  0.65980128  0.68604718  1.0
  Ti  Ti4930  1  0.42272637  0.82646794  0.68604718  1.0
  Ti  Ti4931  1  0.42272637  0.99313461  0.68604718  1.0
  Ti  Ti4932  1  0.50605970  0.15980128  0.68604718  1.0
  Ti  Ti4933  1  0.50605970  0.32646794  0.68604718  1.0
  Ti  Ti4934  1  0.50605970  0.49313461  0.68604718  1.0
  Ti  Ti4935  1  0.50605970  0.65980128  0.68604718  1.0
  Ti  Ti4936  1  0.50605970  0.82646794  0.68604718  1.0
  Ti  Ti4937  1  0.50605970  0.99313461  0.68604718  1.0
  Ti  Ti4938  1  0.58939303  0.15980128  0.68604718  1.0
  Ti  Ti4939  1  0.58939303  0.32646794  0.68604718  1.0
  Ti  Ti4940  1  0.58939303  0.49313461  0.68604718  1.0
  Ti  Ti4941  1  0.58939303  0.65980128  0.68604718  1.0
  Ti  Ti4942  1  0.58939303  0.82646794  0.68604718  1.0
  Ti  Ti4943  1  0.58939303  0.99313461  0.68604718  1.0
  Ti  Ti4944  1  0.67272637  0.15980128  0.68604718  1.0
  Ti  Ti4945  1  0.67272637  0.32646794  0.68604718  1.0
  Ti  Ti4946  1  0.67272637  0.49313461  0.68604718  1.0
  Ti  Ti4947  1  0.67272637  0.65980128  0.68604718  1.0
  Ti  Ti4948  1  0.67272637  0.82646794  0.68604718  1.0
  Ti  Ti4949  1  0.67272637  0.99313461  0.68604718  1.0
  Ti  Ti4950  1  0.75605970  0.15980128  0.68604718  1.0
  Ti  Ti4951  1  0.75605970  0.32646794  0.68604718  1.0
  Ti  Ti4952  1  0.75605970  0.49313461  0.68604718  1.0
  Ti  Ti4953  1  0.75605970  0.65980128  0.68604718  1.0
  Ti  Ti4954  1  0.75605970  0.82646794  0.68604718  1.0
  Ti  Ti4955  1  0.75605970  0.99313461  0.68604718  1.0
  Ti  Ti4956  1  0.83939303  0.15980128  0.68604718  1.0
  Ti  Ti4957  1  0.83939303  0.32646794  0.68604718  1.0
  Ti  Ti4958  1  0.83939303  0.49313461  0.68604718  1.0
  Ti  Ti4959  1  0.83939303  0.65980128  0.68604718  1.0
  Ti  Ti4960  1  0.83939303  0.82646794  0.68604718  1.0
  Ti  Ti4961  1  0.83939303  0.99313461  0.68604718  1.0
  Ti  Ti4962  1  0.92272637  0.15980128  0.68604718  1.0
  Ti  Ti4963  1  0.92272637  0.32646794  0.68604718  1.0
  Ti  Ti4964  1  0.92272637  0.49313461  0.68604718  1.0
  Ti  Ti4965  1  0.92272637  0.65980128  0.68604718  1.0
  Ti  Ti4966  1  0.92272637  0.82646794  0.68604718  1.0
  Ti  Ti4967  1  0.92272637  0.99313461  0.68604718  1.0
  Ti  Ti4968  1  0.05286921  0.09350191  0.67004998  1.0
  Ti  Ti4969  1  0.05286921  0.26016858  0.67004998  1.0
  Ti  Ti4970  1  0.05286921  0.42683524  0.67004998  1.0
  Ti  Ti4971  1  0.05286921  0.59350191  0.67004998  1.0
  Ti  Ti4972  1  0.05286921  0.76016858  0.67004998  1.0
  Ti  Ti4973  1  0.05286921  0.92683524  0.67004998  1.0
  Ti  Ti4974  1  0.13620255  0.09350191  0.67004998  1.0
  Ti  Ti4975  1  0.13620255  0.26016858  0.67004998  1.0
  Ti  Ti4976  1  0.13620255  0.42683524  0.67004998  1.0
  Ti  Ti4977  1  0.13620255  0.59350191  0.67004998  1.0
  Ti  Ti4978  1  0.13620255  0.76016858  0.67004998  1.0
  Ti  Ti4979  1  0.13620255  0.92683524  0.67004998  1.0
  Ti  Ti4980  1  0.21953588  0.09350191  0.67004998  1.0
  Ti  Ti4981  1  0.21953588  0.26016858  0.67004998  1.0
  Ti  Ti4982  1  0.21953588  0.42683524  0.67004998  1.0
  Ti  Ti4983  1  0.21953588  0.59350191  0.67004998  1.0
  Ti  Ti4984  1  0.21953588  0.76016858  0.67004998  1.0
  Ti  Ti4985  1  0.21953588  0.92683524  0.67004998  1.0
  Ti  Ti4986  1  0.30286921  0.09350191  0.67004998  1.0
  Ti  Ti4987  1  0.30286921  0.26016858  0.67004998  1.0
  Ti  Ti4988  1  0.30286921  0.42683524  0.67004998  1.0
  Ti  Ti4989  1  0.30286921  0.59350191  0.67004998  1.0
  Ti  Ti4990  1  0.30286921  0.76016858  0.67004998  1.0
  Ti  Ti4991  1  0.30286921  0.92683524  0.67004998  1.0
  Ti  Ti4992  1  0.38620255  0.09350191  0.67004998  1.0
  Ti  Ti4993  1  0.38620255  0.26016858  0.67004998  1.0
  Ti  Ti4994  1  0.38620255  0.42683524  0.67004998  1.0
  Ti  Ti4995  1  0.38620255  0.59350191  0.67004998  1.0
  Ti  Ti4996  1  0.38620255  0.76016858  0.67004998  1.0
  Ti  Ti4997  1  0.38620255  0.92683524  0.67004998  1.0
  Ti  Ti4998  1  0.46953588  0.09350191  0.67004998  1.0
  Ti  Ti4999  1  0.46953588  0.26016858  0.67004998  1.0
  Ti  Ti5000  1  0.46953588  0.42683524  0.67004998  1.0
  Ti  Ti5001  1  0.46953588  0.59350191  0.67004998  1.0
  Ti  Ti5002  1  0.46953588  0.76016858  0.67004998  1.0
  Ti  Ti5003  1  0.46953588  0.92683524  0.67004998  1.0
  Ti  Ti5004  1  0.55286921  0.09350191  0.67004998  1.0
  Ti  Ti5005  1  0.55286921  0.26016858  0.67004998  1.0
  Ti  Ti5006  1  0.55286921  0.42683524  0.67004998  1.0
  Ti  Ti5007  1  0.55286921  0.59350191  0.67004998  1.0
  Ti  Ti5008  1  0.55286921  0.76016858  0.67004998  1.0
  Ti  Ti5009  1  0.55286921  0.92683524  0.67004998  1.0
  Ti  Ti5010  1  0.63620255  0.09350191  0.67004998  1.0
  Ti  Ti5011  1  0.63620255  0.26016858  0.67004998  1.0
  Ti  Ti5012  1  0.63620255  0.42683524  0.67004998  1.0
  Ti  Ti5013  1  0.63620255  0.59350191  0.67004998  1.0
  Ti  Ti5014  1  0.63620255  0.76016858  0.67004998  1.0
  Ti  Ti5015  1  0.63620255  0.92683524  0.67004998  1.0
  Ti  Ti5016  1  0.71953588  0.09350191  0.67004998  1.0
  Ti  Ti5017  1  0.71953588  0.26016858  0.67004998  1.0
  Ti  Ti5018  1  0.71953588  0.42683524  0.67004998  1.0
  Ti  Ti5019  1  0.71953588  0.59350191  0.67004998  1.0
  Ti  Ti5020  1  0.71953588  0.76016858  0.67004998  1.0
  Ti  Ti5021  1  0.71953588  0.92683524  0.67004998  1.0
  Ti  Ti5022  1  0.80286921  0.09350191  0.67004998  1.0
  Ti  Ti5023  1  0.80286921  0.26016858  0.67004998  1.0
  Ti  Ti5024  1  0.80286921  0.42683524  0.67004998  1.0
  Ti  Ti5025  1  0.80286921  0.59350191  0.67004998  1.0
  Ti  Ti5026  1  0.80286921  0.76016858  0.67004998  1.0
  Ti  Ti5027  1  0.80286921  0.92683524  0.67004998  1.0
  Ti  Ti5028  1  0.88620255  0.09350191  0.67004998  1.0
  Ti  Ti5029  1  0.88620255  0.26016858  0.67004998  1.0
  Ti  Ti5030  1  0.88620255  0.42683524  0.67004998  1.0
  Ti  Ti5031  1  0.88620255  0.59350191  0.67004998  1.0
  Ti  Ti5032  1  0.88620255  0.76016858  0.67004998  1.0
  Ti  Ti5033  1  0.88620255  0.92683524  0.67004998  1.0
  Ti  Ti5034  1  0.96953588  0.09350191  0.67004998  1.0
  Ti  Ti5035  1  0.96953588  0.26016858  0.67004998  1.0
  Ti  Ti5036  1  0.96953588  0.42683524  0.67004998  1.0
  Ti  Ti5037  1  0.96953588  0.59350191  0.67004998  1.0
  Ti  Ti5038  1  0.96953588  0.76016858  0.67004998  1.0
  Ti  Ti5039  1  0.96953588  0.92683524  0.67004998  1.0
  Ti  Ti5040  1  0.04128375  0.06297720  0.70292183  1.0
  Ti  Ti5041  1  0.04128375  0.22964387  0.70292183  1.0
  Ti  Ti5042  1  0.04128375  0.39631054  0.70292183  1.0
  Ti  Ti5043  1  0.04128375  0.56297720  0.70292183  1.0
  Ti  Ti5044  1  0.04128375  0.72964387  0.70292183  1.0
  Ti  Ti5045  1  0.04128375  0.89631054  0.70292183  1.0
  Ti  Ti5046  1  0.12461708  0.06297720  0.70292183  1.0
  Ti  Ti5047  1  0.12461708  0.22964387  0.70292183  1.0
  Ti  Ti5048  1  0.12461708  0.39631054  0.70292183  1.0
  Ti  Ti5049  1  0.12461708  0.56297720  0.70292183  1.0
  Ti  Ti5050  1  0.12461708  0.72964387  0.70292183  1.0
  Ti  Ti5051  1  0.12461708  0.89631054  0.70292183  1.0
  Ti  Ti5052  1  0.20795041  0.06297720  0.70292183  1.0
  Ti  Ti5053  1  0.20795041  0.22964387  0.70292183  1.0
  Ti  Ti5054  1  0.20795041  0.39631054  0.70292183  1.0
  Ti  Ti5055  1  0.20795041  0.56297720  0.70292183  1.0
  Ti  Ti5056  1  0.20795041  0.72964387  0.70292183  1.0
  Ti  Ti5057  1  0.20795041  0.89631054  0.70292183  1.0
  Ti  Ti5058  1  0.29128375  0.06297720  0.70292183  1.0
  Ti  Ti5059  1  0.29128375  0.22964387  0.70292183  1.0
  Ti  Ti5060  1  0.29128375  0.39631054  0.70292183  1.0
  Ti  Ti5061  1  0.29128375  0.56297720  0.70292183  1.0
  Ti  Ti5062  1  0.29128375  0.72964387  0.70292183  1.0
  Ti  Ti5063  1  0.29128375  0.89631054  0.70292183  1.0
  Ti  Ti5064  1  0.37461708  0.06297720  0.70292183  1.0
  Ti  Ti5065  1  0.37461708  0.22964387  0.70292183  1.0
  Ti  Ti5066  1  0.37461708  0.39631054  0.70292183  1.0
  Ti  Ti5067  1  0.37461708  0.56297720  0.70292183  1.0
  Ti  Ti5068  1  0.37461708  0.72964387  0.70292183  1.0
  Ti  Ti5069  1  0.37461708  0.89631054  0.70292183  1.0
  Ti  Ti5070  1  0.45795041  0.06297720  0.70292183  1.0
  Ti  Ti5071  1  0.45795041  0.22964387  0.70292183  1.0
  Ti  Ti5072  1  0.45795041  0.39631054  0.70292183  1.0
  Ti  Ti5073  1  0.45795041  0.56297720  0.70292183  1.0
  Ti  Ti5074  1  0.45795041  0.72964387  0.70292183  1.0
  Ti  Ti5075  1  0.45795041  0.89631054  0.70292183  1.0
  Ti  Ti5076  1  0.54128375  0.06297720  0.70292183  1.0
  Ti  Ti5077  1  0.54128375  0.22964387  0.70292183  1.0
  Ti  Ti5078  1  0.54128375  0.39631054  0.70292183  1.0
  Ti  Ti5079  1  0.54128375  0.56297720  0.70292183  1.0
  Ti  Ti5080  1  0.54128375  0.72964387  0.70292183  1.0
  Ti  Ti5081  1  0.54128375  0.89631054  0.70292183  1.0
  Ti  Ti5082  1  0.62461708  0.06297720  0.70292183  1.0
  Ti  Ti5083  1  0.62461708  0.22964387  0.70292183  1.0
  Ti  Ti5084  1  0.62461708  0.39631054  0.70292183  1.0
  Ti  Ti5085  1  0.62461708  0.56297720  0.70292183  1.0
  Ti  Ti5086  1  0.62461708  0.72964387  0.70292183  1.0
  Ti  Ti5087  1  0.62461708  0.89631054  0.70292183  1.0
  Ti  Ti5088  1  0.70795041  0.06297720  0.70292183  1.0
  Ti  Ti5089  1  0.70795041  0.22964387  0.70292183  1.0
  Ti  Ti5090  1  0.70795041  0.39631054  0.70292183  1.0
  Ti  Ti5091  1  0.70795041  0.56297720  0.70292183  1.0
  Ti  Ti5092  1  0.70795041  0.72964387  0.70292183  1.0
  Ti  Ti5093  1  0.70795041  0.89631054  0.70292183  1.0
  Ti  Ti5094  1  0.79128375  0.06297720  0.70292183  1.0
  Ti  Ti5095  1  0.79128375  0.22964387  0.70292183  1.0
  Ti  Ti5096  1  0.79128375  0.39631054  0.70292183  1.0
  Ti  Ti5097  1  0.79128375  0.56297720  0.70292183  1.0
  Ti  Ti5098  1  0.79128375  0.72964387  0.70292183  1.0
  Ti  Ti5099  1  0.79128375  0.89631054  0.70292183  1.0
  Ti  Ti5100  1  0.87461708  0.06297720  0.70292183  1.0
  Ti  Ti5101  1  0.87461708  0.22964387  0.70292183  1.0
  Ti  Ti5102  1  0.87461708  0.39631054  0.70292183  1.0
  Ti  Ti5103  1  0.87461708  0.56297720  0.70292183  1.0
  Ti  Ti5104  1  0.87461708  0.72964387  0.70292183  1.0
  Ti  Ti5105  1  0.87461708  0.89631054  0.70292183  1.0
  Ti  Ti5106  1  0.95795041  0.06297720  0.70292183  1.0
  Ti  Ti5107  1  0.95795041  0.22964387  0.70292183  1.0
  Ti  Ti5108  1  0.95795041  0.39631054  0.70292183  1.0
  Ti  Ti5109  1  0.95795041  0.56297720  0.70292183  1.0
  Ti  Ti5110  1  0.95795041  0.72964387  0.70292183  1.0
  Ti  Ti5111  1  0.95795041  0.89631054  0.70292183  1.0
  Ti  Ti5112  1  0.04337528  0.01295942  0.69166542  1.0
  Ti  Ti5113  1  0.04337528  0.17962609  0.69166542  1.0
  Ti  Ti5114  1  0.04337528  0.34629275  0.69166542  1.0
  Ti  Ti5115  1  0.04337528  0.51295942  0.69166542  1.0
  Ti  Ti5116  1  0.04337528  0.67962609  0.69166542  1.0
  Ti  Ti5117  1  0.04337528  0.84629275  0.69166542  1.0
  Ti  Ti5118  1  0.12670861  0.01295942  0.69166542  1.0
  Ti  Ti5119  1  0.12670861  0.17962609  0.69166542  1.0
  Ti  Ti5120  1  0.12670861  0.34629275  0.69166542  1.0
  Ti  Ti5121  1  0.12670861  0.51295942  0.69166542  1.0
  Ti  Ti5122  1  0.12670861  0.67962609  0.69166542  1.0
  Ti  Ti5123  1  0.12670861  0.84629275  0.69166542  1.0
  Ti  Ti5124  1  0.21004195  0.01295942  0.69166542  1.0
  Ti  Ti5125  1  0.21004195  0.17962609  0.69166542  1.0
  Ti  Ti5126  1  0.21004195  0.34629275  0.69166542  1.0
  Ti  Ti5127  1  0.21004195  0.51295942  0.69166542  1.0
  Ti  Ti5128  1  0.21004195  0.67962609  0.69166542  1.0
  Ti  Ti5129  1  0.21004195  0.84629275  0.69166542  1.0
  Ti  Ti5130  1  0.29337528  0.01295942  0.69166542  1.0
  Ti  Ti5131  1  0.29337528  0.17962609  0.69166542  1.0
  Ti  Ti5132  1  0.29337528  0.34629275  0.69166542  1.0
  Ti  Ti5133  1  0.29337528  0.51295942  0.69166542  1.0
  Ti  Ti5134  1  0.29337528  0.67962609  0.69166542  1.0
  Ti  Ti5135  1  0.29337528  0.84629275  0.69166542  1.0
  Ti  Ti5136  1  0.37670861  0.01295942  0.69166542  1.0
  Ti  Ti5137  1  0.37670861  0.17962609  0.69166542  1.0
  Ti  Ti5138  1  0.37670861  0.34629275  0.69166542  1.0
  Ti  Ti5139  1  0.37670861  0.51295942  0.69166542  1.0
  Ti  Ti5140  1  0.37670861  0.67962609  0.69166542  1.0
  Ti  Ti5141  1  0.37670861  0.84629275  0.69166542  1.0
  Ti  Ti5142  1  0.46004195  0.01295942  0.69166542  1.0
  Ti  Ti5143  1  0.46004195  0.17962609  0.69166542  1.0
  Ti  Ti5144  1  0.46004195  0.34629275  0.69166542  1.0
  Ti  Ti5145  1  0.46004195  0.51295942  0.69166542  1.0
  Ti  Ti5146  1  0.46004195  0.67962609  0.69166542  1.0
  Ti  Ti5147  1  0.46004195  0.84629275  0.69166542  1.0
  Ti  Ti5148  1  0.54337528  0.01295942  0.69166542  1.0
  Ti  Ti5149  1  0.54337528  0.17962609  0.69166542  1.0
  Ti  Ti5150  1  0.54337528  0.34629275  0.69166542  1.0
  Ti  Ti5151  1  0.54337528  0.51295942  0.69166542  1.0
  Ti  Ti5152  1  0.54337528  0.67962609  0.69166542  1.0
  Ti  Ti5153  1  0.54337528  0.84629275  0.69166542  1.0
  Ti  Ti5154  1  0.62670861  0.01295942  0.69166542  1.0
  Ti  Ti5155  1  0.62670861  0.17962609  0.69166542  1.0
  Ti  Ti5156  1  0.62670861  0.34629275  0.69166542  1.0
  Ti  Ti5157  1  0.62670861  0.51295942  0.69166542  1.0
  Ti  Ti5158  1  0.62670861  0.67962609  0.69166542  1.0
  Ti  Ti5159  1  0.62670861  0.84629275  0.69166542  1.0
  Ti  Ti5160  1  0.71004195  0.01295942  0.69166542  1.0
  Ti  Ti5161  1  0.71004195  0.17962609  0.69166542  1.0
  Ti  Ti5162  1  0.71004195  0.34629275  0.69166542  1.0
  Ti  Ti5163  1  0.71004195  0.51295942  0.69166542  1.0
  Ti  Ti5164  1  0.71004195  0.67962609  0.69166542  1.0
  Ti  Ti5165  1  0.71004195  0.84629275  0.69166542  1.0
  Ti  Ti5166  1  0.79337528  0.01295942  0.69166542  1.0
  Ti  Ti5167  1  0.79337528  0.17962609  0.69166542  1.0
  Ti  Ti5168  1  0.79337528  0.34629275  0.69166542  1.0
  Ti  Ti5169  1  0.79337528  0.51295942  0.69166542  1.0
  Ti  Ti5170  1  0.79337528  0.67962609  0.69166542  1.0
  Ti  Ti5171  1  0.79337528  0.84629275  0.69166542  1.0
  Ti  Ti5172  1  0.87670861  0.01295942  0.69166542  1.0
  Ti  Ti5173  1  0.87670861  0.17962609  0.69166542  1.0
  Ti  Ti5174  1  0.87670861  0.34629275  0.69166542  1.0
  Ti  Ti5175  1  0.87670861  0.51295942  0.69166542  1.0
  Ti  Ti5176  1  0.87670861  0.67962609  0.69166542  1.0
  Ti  Ti5177  1  0.87670861  0.84629275  0.69166542  1.0
  Ti  Ti5178  1  0.96004195  0.01295942  0.69166542  1.0
  Ti  Ti5179  1  0.96004195  0.17962609  0.69166542  1.0
  Ti  Ti5180  1  0.96004195  0.34629275  0.69166542  1.0
  Ti  Ti5181  1  0.96004195  0.51295942  0.69166542  1.0
  Ti  Ti5182  1  0.96004195  0.67962609  0.69166542  1.0
  Ti  Ti5183  1  0.96004195  0.84629275  0.69166542  1.0
  Ti  Ti5184  1  0.01835330  0.14249149  0.64512503  1.0
  Ti  Ti5185  1  0.01835330  0.30915815  0.64512503  1.0
  Ti  Ti5186  1  0.01835330  0.47582482  0.64512503  1.0
  Ti  Ti5187  1  0.01835330  0.64249149  0.64512503  1.0
  Ti  Ti5188  1  0.01835330  0.80915815  0.64512503  1.0
  Ti  Ti5189  1  0.01835330  0.97582482  0.64512503  1.0
  Ti  Ti5190  1  0.10168664  0.14249149  0.64512503  1.0
  Ti  Ti5191  1  0.10168664  0.30915815  0.64512503  1.0
  Ti  Ti5192  1  0.10168664  0.47582482  0.64512503  1.0
  Ti  Ti5193  1  0.10168664  0.64249149  0.64512503  1.0
  Ti  Ti5194  1  0.10168664  0.80915815  0.64512503  1.0
  Ti  Ti5195  1  0.10168664  0.97582482  0.64512503  1.0
  Ti  Ti5196  1  0.18501997  0.14249149  0.64512503  1.0
  Ti  Ti5197  1  0.18501997  0.30915815  0.64512503  1.0
  Ti  Ti5198  1  0.18501997  0.47582482  0.64512503  1.0
  Ti  Ti5199  1  0.18501997  0.64249149  0.64512503  1.0
  Ti  Ti5200  1  0.18501997  0.80915815  0.64512503  1.0
  Ti  Ti5201  1  0.18501997  0.97582482  0.64512503  1.0
  Ti  Ti5202  1  0.26835330  0.14249149  0.64512503  1.0
  Ti  Ti5203  1  0.26835330  0.30915815  0.64512503  1.0
  Ti  Ti5204  1  0.26835330  0.47582482  0.64512503  1.0
  Ti  Ti5205  1  0.26835330  0.64249149  0.64512503  1.0
  Ti  Ti5206  1  0.26835330  0.80915815  0.64512503  1.0
  Ti  Ti5207  1  0.26835330  0.97582482  0.64512503  1.0
  Ti  Ti5208  1  0.35168664  0.14249149  0.64512503  1.0
  Ti  Ti5209  1  0.35168664  0.30915815  0.64512503  1.0
  Ti  Ti5210  1  0.35168664  0.47582482  0.64512503  1.0
  Ti  Ti5211  1  0.35168664  0.64249149  0.64512503  1.0
  Ti  Ti5212  1  0.35168664  0.80915815  0.64512503  1.0
  Ti  Ti5213  1  0.35168664  0.97582482  0.64512503  1.0
  Ti  Ti5214  1  0.43501997  0.14249149  0.64512503  1.0
  Ti  Ti5215  1  0.43501997  0.30915815  0.64512503  1.0
  Ti  Ti5216  1  0.43501997  0.47582482  0.64512503  1.0
  Ti  Ti5217  1  0.43501997  0.64249149  0.64512503  1.0
  Ti  Ti5218  1  0.43501997  0.80915815  0.64512503  1.0
  Ti  Ti5219  1  0.43501997  0.97582482  0.64512503  1.0
  Ti  Ti5220  1  0.51835330  0.14249149  0.64512503  1.0
  Ti  Ti5221  1  0.51835330  0.30915815  0.64512503  1.0
  Ti  Ti5222  1  0.51835330  0.47582482  0.64512503  1.0
  Ti  Ti5223  1  0.51835330  0.64249149  0.64512503  1.0
  Ti  Ti5224  1  0.51835330  0.80915815  0.64512503  1.0
  Ti  Ti5225  1  0.51835330  0.97582482  0.64512503  1.0
  Ti  Ti5226  1  0.60168664  0.14249149  0.64512503  1.0
  Ti  Ti5227  1  0.60168664  0.30915815  0.64512503  1.0
  Ti  Ti5228  1  0.60168664  0.47582482  0.64512503  1.0
  Ti  Ti5229  1  0.60168664  0.64249149  0.64512503  1.0
  Ti  Ti5230  1  0.60168664  0.80915815  0.64512503  1.0
  Ti  Ti5231  1  0.60168664  0.97582482  0.64512503  1.0
  Ti  Ti5232  1  0.68501997  0.14249149  0.64512503  1.0
  Ti  Ti5233  1  0.68501997  0.30915815  0.64512503  1.0
  Ti  Ti5234  1  0.68501997  0.47582482  0.64512503  1.0
  Ti  Ti5235  1  0.68501997  0.64249149  0.64512503  1.0
  Ti  Ti5236  1  0.68501997  0.80915815  0.64512503  1.0
  Ti  Ti5237  1  0.68501997  0.97582482  0.64512503  1.0
  Ti  Ti5238  1  0.76835330  0.14249149  0.64512503  1.0
  Ti  Ti5239  1  0.76835330  0.30915815  0.64512503  1.0
  Ti  Ti5240  1  0.76835330  0.47582482  0.64512503  1.0
  Ti  Ti5241  1  0.76835330  0.64249149  0.64512503  1.0
  Ti  Ti5242  1  0.76835330  0.80915815  0.64512503  1.0
  Ti  Ti5243  1  0.76835330  0.97582482  0.64512503  1.0
  Ti  Ti5244  1  0.85168664  0.14249149  0.64512503  1.0
  Ti  Ti5245  1  0.85168664  0.30915815  0.64512503  1.0
  Ti  Ti5246  1  0.85168664  0.47582482  0.64512503  1.0
  Ti  Ti5247  1  0.85168664  0.64249149  0.64512503  1.0
  Ti  Ti5248  1  0.85168664  0.80915815  0.64512503  1.0
  Ti  Ti5249  1  0.85168664  0.97582482  0.64512503  1.0
  Ti  Ti5250  1  0.93501997  0.14249149  0.64512503  1.0
  Ti  Ti5251  1  0.93501997  0.30915815  0.64512503  1.0
  Ti  Ti5252  1  0.93501997  0.47582482  0.64512503  1.0
  Ti  Ti5253  1  0.93501997  0.64249149  0.64512503  1.0
  Ti  Ti5254  1  0.93501997  0.80915815  0.64512503  1.0
  Ti  Ti5255  1  0.93501997  0.97582482  0.64512503  1.0
  Ti  Ti5256  1  0.07787711  0.13058673  0.71655360  1.0
  Ti  Ti5257  1  0.07787711  0.29725339  0.71655360  1.0
  Ti  Ti5258  1  0.07787711  0.46392006  0.71655360  1.0
  Ti  Ti5259  1  0.07787711  0.63058673  0.71655360  1.0
  Ti  Ti5260  1  0.07787711  0.79725339  0.71655360  1.0
  Ti  Ti5261  1  0.07787711  0.96392006  0.71655360  1.0
  Ti  Ti5262  1  0.16121045  0.13058673  0.71655360  1.0
  Ti  Ti5263  1  0.16121045  0.29725339  0.71655360  1.0
  Ti  Ti5264  1  0.16121045  0.46392006  0.71655360  1.0
  Ti  Ti5265  1  0.16121045  0.63058673  0.71655360  1.0
  Ti  Ti5266  1  0.16121045  0.79725339  0.71655360  1.0
  Ti  Ti5267  1  0.16121045  0.96392006  0.71655360  1.0
  Ti  Ti5268  1  0.24454378  0.13058673  0.71655360  1.0
  Ti  Ti5269  1  0.24454378  0.29725339  0.71655360  1.0
  Ti  Ti5270  1  0.24454378  0.46392006  0.71655360  1.0
  Ti  Ti5271  1  0.24454378  0.63058673  0.71655360  1.0
  Ti  Ti5272  1  0.24454378  0.79725339  0.71655360  1.0
  Ti  Ti5273  1  0.24454378  0.96392006  0.71655360  1.0
  Ti  Ti5274  1  0.32787711  0.13058673  0.71655360  1.0
  Ti  Ti5275  1  0.32787711  0.29725339  0.71655360  1.0
  Ti  Ti5276  1  0.32787711  0.46392006  0.71655360  1.0
  Ti  Ti5277  1  0.32787711  0.63058673  0.71655360  1.0
  Ti  Ti5278  1  0.32787711  0.79725339  0.71655360  1.0
  Ti  Ti5279  1  0.32787711  0.96392006  0.71655360  1.0
  Ti  Ti5280  1  0.41121045  0.13058673  0.71655360  1.0
  Ti  Ti5281  1  0.41121045  0.29725339  0.71655360  1.0
  Ti  Ti5282  1  0.41121045  0.46392006  0.71655360  1.0
  Ti  Ti5283  1  0.41121045  0.63058673  0.71655360  1.0
  Ti  Ti5284  1  0.41121045  0.79725339  0.71655360  1.0
  Ti  Ti5285  1  0.41121045  0.96392006  0.71655360  1.0
  Ti  Ti5286  1  0.49454378  0.13058673  0.71655360  1.0
  Ti  Ti5287  1  0.49454378  0.29725339  0.71655360  1.0
  Ti  Ti5288  1  0.49454378  0.46392006  0.71655360  1.0
  Ti  Ti5289  1  0.49454378  0.63058673  0.71655360  1.0
  Ti  Ti5290  1  0.49454378  0.79725339  0.71655360  1.0
  Ti  Ti5291  1  0.49454378  0.96392006  0.71655360  1.0
  Ti  Ti5292  1  0.57787711  0.13058673  0.71655360  1.0
  Ti  Ti5293  1  0.57787711  0.29725339  0.71655360  1.0
  Ti  Ti5294  1  0.57787711  0.46392006  0.71655360  1.0
  Ti  Ti5295  1  0.57787711  0.63058673  0.71655360  1.0
  Ti  Ti5296  1  0.57787711  0.79725339  0.71655360  1.0
  Ti  Ti5297  1  0.57787711  0.96392006  0.71655360  1.0
  Ti  Ti5298  1  0.66121045  0.13058673  0.71655360  1.0
  Ti  Ti5299  1  0.66121045  0.29725339  0.71655360  1.0
  Ti  Ti5300  1  0.66121045  0.46392006  0.71655360  1.0
  Ti  Ti5301  1  0.66121045  0.63058673  0.71655360  1.0
  Ti  Ti5302  1  0.66121045  0.79725339  0.71655360  1.0
  Ti  Ti5303  1  0.66121045  0.96392006  0.71655360  1.0
  Ti  Ti5304  1  0.74454378  0.13058673  0.71655360  1.0
  Ti  Ti5305  1  0.74454378  0.29725339  0.71655360  1.0
  Ti  Ti5306  1  0.74454378  0.46392006  0.71655360  1.0
  Ti  Ti5307  1  0.74454378  0.63058673  0.71655360  1.0
  Ti  Ti5308  1  0.74454378  0.79725339  0.71655360  1.0
  Ti  Ti5309  1  0.74454378  0.96392006  0.71655360  1.0
  Ti  Ti5310  1  0.82787711  0.13058673  0.71655360  1.0
  Ti  Ti5311  1  0.82787711  0.29725339  0.71655360  1.0
  Ti  Ti5312  1  0.82787711  0.46392006  0.71655360  1.0
  Ti  Ti5313  1  0.82787711  0.63058673  0.71655360  1.0
  Ti  Ti5314  1  0.82787711  0.79725339  0.71655360  1.0
  Ti  Ti5315  1  0.82787711  0.96392006  0.71655360  1.0
  Ti  Ti5316  1  0.91121045  0.13058673  0.71655360  1.0
  Ti  Ti5317  1  0.91121045  0.29725339  0.71655360  1.0
  Ti  Ti5318  1  0.91121045  0.46392006  0.71655360  1.0
  Ti  Ti5319  1  0.91121045  0.63058673  0.71655360  1.0
  Ti  Ti5320  1  0.91121045  0.79725339  0.71655360  1.0
  Ti  Ti5321  1  0.91121045  0.96392006  0.71655360  1.0
  Ti  Ti5322  1  0.99454378  0.13058673  0.71655360  1.0
  Ti  Ti5323  1  0.99454378  0.29725339  0.71655360  1.0
  Ti  Ti5324  1  0.99454378  0.46392006  0.71655360  1.0
  Ti  Ti5325  1  0.99454378  0.63058673  0.71655360  1.0
  Ti  Ti5326  1  0.99454378  0.79725339  0.71655360  1.0
  Ti  Ti5327  1  0.99454378  0.96392006  0.71655360  1.0
  Ti  Ti5328  1  0.01136388  0.06707583  0.66451806  1.0
  Ti  Ti5329  1  0.01136388  0.23374250  0.66451806  1.0
  Ti  Ti5330  1  0.01136388  0.40040917  0.66451806  1.0
  Ti  Ti5331  1  0.01136388  0.56707583  0.66451806  1.0
  Ti  Ti5332  1  0.01136388  0.73374250  0.66451806  1.0
  Ti  Ti5333  1  0.01136388  0.90040917  0.66451806  1.0
  Ti  Ti5334  1  0.09469721  0.06707583  0.66451806  1.0
  Ti  Ti5335  1  0.09469721  0.23374250  0.66451806  1.0
  Ti  Ti5336  1  0.09469721  0.40040917  0.66451806  1.0
  Ti  Ti5337  1  0.09469721  0.56707583  0.66451806  1.0
  Ti  Ti5338  1  0.09469721  0.73374250  0.66451806  1.0
  Ti  Ti5339  1  0.09469721  0.90040917  0.66451806  1.0
  Ti  Ti5340  1  0.17803054  0.06707583  0.66451806  1.0
  Ti  Ti5341  1  0.17803054  0.23374250  0.66451806  1.0
  Ti  Ti5342  1  0.17803054  0.40040917  0.66451806  1.0
  Ti  Ti5343  1  0.17803054  0.56707583  0.66451806  1.0
  Ti  Ti5344  1  0.17803054  0.73374250  0.66451806  1.0
  Ti  Ti5345  1  0.17803054  0.90040917  0.66451806  1.0
  Ti  Ti5346  1  0.26136388  0.06707583  0.66451806  1.0
  Ti  Ti5347  1  0.26136388  0.23374250  0.66451806  1.0
  Ti  Ti5348  1  0.26136388  0.40040917  0.66451806  1.0
  Ti  Ti5349  1  0.26136388  0.56707583  0.66451806  1.0
  Ti  Ti5350  1  0.26136388  0.73374250  0.66451806  1.0
  Ti  Ti5351  1  0.26136388  0.90040917  0.66451806  1.0
  Ti  Ti5352  1  0.34469721  0.06707583  0.66451806  1.0
  Ti  Ti5353  1  0.34469721  0.23374250  0.66451806  1.0
  Ti  Ti5354  1  0.34469721  0.40040917  0.66451806  1.0
  Ti  Ti5355  1  0.34469721  0.56707583  0.66451806  1.0
  Ti  Ti5356  1  0.34469721  0.73374250  0.66451806  1.0
  Ti  Ti5357  1  0.34469721  0.90040917  0.66451806  1.0
  Ti  Ti5358  1  0.42803054  0.06707583  0.66451806  1.0
  Ti  Ti5359  1  0.42803054  0.23374250  0.66451806  1.0
  Ti  Ti5360  1  0.42803054  0.40040917  0.66451806  1.0
  Ti  Ti5361  1  0.42803054  0.56707583  0.66451806  1.0
  Ti  Ti5362  1  0.42803054  0.73374250  0.66451806  1.0
  Ti  Ti5363  1  0.42803054  0.90040917  0.66451806  1.0
  Ti  Ti5364  1  0.51136388  0.06707583  0.66451806  1.0
  Ti  Ti5365  1  0.51136388  0.23374250  0.66451806  1.0
  Ti  Ti5366  1  0.51136388  0.40040917  0.66451806  1.0
  Ti  Ti5367  1  0.51136388  0.56707583  0.66451806  1.0
  Ti  Ti5368  1  0.51136388  0.73374250  0.66451806  1.0
  Ti  Ti5369  1  0.51136388  0.90040917  0.66451806  1.0
  Ti  Ti5370  1  0.59469721  0.06707583  0.66451806  1.0
  Ti  Ti5371  1  0.59469721  0.23374250  0.66451806  1.0
  Ti  Ti5372  1  0.59469721  0.40040917  0.66451806  1.0
  Ti  Ti5373  1  0.59469721  0.56707583  0.66451806  1.0
  Ti  Ti5374  1  0.59469721  0.73374250  0.66451806  1.0
  Ti  Ti5375  1  0.59469721  0.90040917  0.66451806  1.0
  Ti  Ti5376  1  0.67803054  0.06707583  0.66451806  1.0
  Ti  Ti5377  1  0.67803054  0.23374250  0.66451806  1.0
  Ti  Ti5378  1  0.67803054  0.40040917  0.66451806  1.0
  Ti  Ti5379  1  0.67803054  0.56707583  0.66451806  1.0
  Ti  Ti5380  1  0.67803054  0.73374250  0.66451806  1.0
  Ti  Ti5381  1  0.67803054  0.90040917  0.66451806  1.0
  Ti  Ti5382  1  0.76136388  0.06707583  0.66451806  1.0
  Ti  Ti5383  1  0.76136388  0.23374250  0.66451806  1.0
  Ti  Ti5384  1  0.76136388  0.40040917  0.66451806  1.0
  Ti  Ti5385  1  0.76136388  0.56707583  0.66451806  1.0
  Ti  Ti5386  1  0.76136388  0.73374250  0.66451806  1.0
  Ti  Ti5387  1  0.76136388  0.90040917  0.66451806  1.0
  Ti  Ti5388  1  0.84469721  0.06707583  0.66451806  1.0
  Ti  Ti5389  1  0.84469721  0.23374250  0.66451806  1.0
  Ti  Ti5390  1  0.84469721  0.40040917  0.66451806  1.0
  Ti  Ti5391  1  0.84469721  0.56707583  0.66451806  1.0
  Ti  Ti5392  1  0.84469721  0.73374250  0.66451806  1.0
  Ti  Ti5393  1  0.84469721  0.90040917  0.66451806  1.0
  Ti  Ti5394  1  0.92803054  0.06707583  0.66451806  1.0
  Ti  Ti5395  1  0.92803054  0.23374250  0.66451806  1.0
  Ti  Ti5396  1  0.92803054  0.40040917  0.66451806  1.0
  Ti  Ti5397  1  0.92803054  0.56707583  0.66451806  1.0
  Ti  Ti5398  1  0.92803054  0.73374250  0.66451806  1.0
  Ti  Ti5399  1  0.92803054  0.90040917  0.66451806  1.0
  Ti  Ti5400  1  0.05816248  0.16620784  0.64881933  1.0
  Ti  Ti5401  1  0.05816248  0.33287451  0.64881933  1.0
  Ti  Ti5402  1  0.05816248  0.49954118  0.64881933  1.0
  Ti  Ti5403  1  0.05816248  0.66620784  0.64881933  1.0
  Ti  Ti5404  1  0.05816248  0.83287451  0.64881933  1.0
  Ti  Ti5405  1  0.05816248  0.99954118  0.64881933  1.0
  Ti  Ti5406  1  0.14149582  0.16620784  0.64881933  1.0
  Ti  Ti5407  1  0.14149582  0.33287451  0.64881933  1.0
  Ti  Ti5408  1  0.14149582  0.49954118  0.64881933  1.0
  Ti  Ti5409  1  0.14149582  0.66620784  0.64881933  1.0
  Ti  Ti5410  1  0.14149582  0.83287451  0.64881933  1.0
  Ti  Ti5411  1  0.14149582  0.99954118  0.64881933  1.0
  Ti  Ti5412  1  0.22482915  0.16620784  0.64881933  1.0
  Ti  Ti5413  1  0.22482915  0.33287451  0.64881933  1.0
  Ti  Ti5414  1  0.22482915  0.49954118  0.64881933  1.0
  Ti  Ti5415  1  0.22482915  0.66620784  0.64881933  1.0
  Ti  Ti5416  1  0.22482915  0.83287451  0.64881933  1.0
  Ti  Ti5417  1  0.22482915  0.99954118  0.64881933  1.0
  Ti  Ti5418  1  0.30816248  0.16620784  0.64881933  1.0
  Ti  Ti5419  1  0.30816248  0.33287451  0.64881933  1.0
  Ti  Ti5420  1  0.30816248  0.49954118  0.64881933  1.0
  Ti  Ti5421  1  0.30816248  0.66620784  0.64881933  1.0
  Ti  Ti5422  1  0.30816248  0.83287451  0.64881933  1.0
  Ti  Ti5423  1  0.30816248  0.99954118  0.64881933  1.0
  Ti  Ti5424  1  0.39149582  0.16620784  0.64881933  1.0
  Ti  Ti5425  1  0.39149582  0.33287451  0.64881933  1.0
  Ti  Ti5426  1  0.39149582  0.49954118  0.64881933  1.0
  Ti  Ti5427  1  0.39149582  0.66620784  0.64881933  1.0
  Ti  Ti5428  1  0.39149582  0.83287451  0.64881933  1.0
  Ti  Ti5429  1  0.39149582  0.99954118  0.64881933  1.0
  Ti  Ti5430  1  0.47482915  0.16620784  0.64881933  1.0
  Ti  Ti5431  1  0.47482915  0.33287451  0.64881933  1.0
  Ti  Ti5432  1  0.47482915  0.49954118  0.64881933  1.0
  Ti  Ti5433  1  0.47482915  0.66620784  0.64881933  1.0
  Ti  Ti5434  1  0.47482915  0.83287451  0.64881933  1.0
  Ti  Ti5435  1  0.47482915  0.99954118  0.64881933  1.0
  Ti  Ti5436  1  0.55816248  0.16620784  0.64881933  1.0
  Ti  Ti5437  1  0.55816248  0.33287451  0.64881933  1.0
  Ti  Ti5438  1  0.55816248  0.49954118  0.64881933  1.0
  Ti  Ti5439  1  0.55816248  0.66620784  0.64881933  1.0
  Ti  Ti5440  1  0.55816248  0.83287451  0.64881933  1.0
  Ti  Ti5441  1  0.55816248  0.99954118  0.64881933  1.0
  Ti  Ti5442  1  0.64149582  0.16620784  0.64881933  1.0
  Ti  Ti5443  1  0.64149582  0.33287451  0.64881933  1.0
  Ti  Ti5444  1  0.64149582  0.49954118  0.64881933  1.0
  Ti  Ti5445  1  0.64149582  0.66620784  0.64881933  1.0
  Ti  Ti5446  1  0.64149582  0.83287451  0.64881933  1.0
  Ti  Ti5447  1  0.64149582  0.99954118  0.64881933  1.0
  Ti  Ti5448  1  0.72482915  0.16620784  0.64881933  1.0
  Ti  Ti5449  1  0.72482915  0.33287451  0.64881933  1.0
  Ti  Ti5450  1  0.72482915  0.49954118  0.64881933  1.0
  Ti  Ti5451  1  0.72482915  0.66620784  0.64881933  1.0
  Ti  Ti5452  1  0.72482915  0.83287451  0.64881933  1.0
  Ti  Ti5453  1  0.72482915  0.99954118  0.64881933  1.0
  Ti  Ti5454  1  0.80816248  0.16620784  0.64881933  1.0
  Ti  Ti5455  1  0.80816248  0.33287451  0.64881933  1.0
  Ti  Ti5456  1  0.80816248  0.49954118  0.64881933  1.0
  Ti  Ti5457  1  0.80816248  0.66620784  0.64881933  1.0
  Ti  Ti5458  1  0.80816248  0.83287451  0.64881933  1.0
  Ti  Ti5459  1  0.80816248  0.99954118  0.64881933  1.0
  Ti  Ti5460  1  0.89149582  0.16620784  0.64881933  1.0
  Ti  Ti5461  1  0.89149582  0.33287451  0.64881933  1.0
  Ti  Ti5462  1  0.89149582  0.49954118  0.64881933  1.0
  Ti  Ti5463  1  0.89149582  0.66620784  0.64881933  1.0
  Ti  Ti5464  1  0.89149582  0.83287451  0.64881933  1.0
  Ti  Ti5465  1  0.89149582  0.99954118  0.64881933  1.0
  Ti  Ti5466  1  0.97482915  0.16620784  0.64881933  1.0
  Ti  Ti5467  1  0.97482915  0.33287451  0.64881933  1.0
  Ti  Ti5468  1  0.97482915  0.49954118  0.64881933  1.0
  Ti  Ti5469  1  0.97482915  0.66620784  0.64881933  1.0
  Ti  Ti5470  1  0.97482915  0.83287451  0.64881933  1.0
  Ti  Ti5471  1  0.97482915  0.99954118  0.64881933  1.0
  Ti  Ti5472  1  0.03809929  0.10693036  0.71289332  1.0
  Ti  Ti5473  1  0.03809929  0.27359703  0.71289332  1.0
  Ti  Ti5474  1  0.03809929  0.44026370  0.71289332  1.0
  Ti  Ti5475  1  0.03809929  0.60693036  0.71289332  1.0
  Ti  Ti5476  1  0.03809929  0.77359703  0.71289332  1.0
  Ti  Ti5477  1  0.03809929  0.94026370  0.71289332  1.0
  Ti  Ti5478  1  0.12143262  0.10693036  0.71289332  1.0
  Ti  Ti5479  1  0.12143262  0.27359703  0.71289332  1.0
  Ti  Ti5480  1  0.12143262  0.44026370  0.71289332  1.0
  Ti  Ti5481  1  0.12143262  0.60693036  0.71289332  1.0
  Ti  Ti5482  1  0.12143262  0.77359703  0.71289332  1.0
  Ti  Ti5483  1  0.12143262  0.94026370  0.71289332  1.0
  Ti  Ti5484  1  0.20476596  0.10693036  0.71289332  1.0
  Ti  Ti5485  1  0.20476596  0.27359703  0.71289332  1.0
  Ti  Ti5486  1  0.20476596  0.44026370  0.71289332  1.0
  Ti  Ti5487  1  0.20476596  0.60693036  0.71289332  1.0
  Ti  Ti5488  1  0.20476596  0.77359703  0.71289332  1.0
  Ti  Ti5489  1  0.20476596  0.94026370  0.71289332  1.0
  Ti  Ti5490  1  0.28809929  0.10693036  0.71289332  1.0
  Ti  Ti5491  1  0.28809929  0.27359703  0.71289332  1.0
  Ti  Ti5492  1  0.28809929  0.44026370  0.71289332  1.0
  Ti  Ti5493  1  0.28809929  0.60693036  0.71289332  1.0
  Ti  Ti5494  1  0.28809929  0.77359703  0.71289332  1.0
  Ti  Ti5495  1  0.28809929  0.94026370  0.71289332  1.0
  Ti  Ti5496  1  0.37143262  0.10693036  0.71289332  1.0
  Ti  Ti5497  1  0.37143262  0.27359703  0.71289332  1.0
  Ti  Ti5498  1  0.37143262  0.44026370  0.71289332  1.0
  Ti  Ti5499  1  0.37143262  0.60693036  0.71289332  1.0
  Ti  Ti5500  1  0.37143262  0.77359703  0.71289332  1.0
  Ti  Ti5501  1  0.37143262  0.94026370  0.71289332  1.0
  Ti  Ti5502  1  0.45476596  0.10693036  0.71289332  1.0
  Ti  Ti5503  1  0.45476596  0.27359703  0.71289332  1.0
  Ti  Ti5504  1  0.45476596  0.44026370  0.71289332  1.0
  Ti  Ti5505  1  0.45476596  0.60693036  0.71289332  1.0
  Ti  Ti5506  1  0.45476596  0.77359703  0.71289332  1.0
  Ti  Ti5507  1  0.45476596  0.94026370  0.71289332  1.0
  Ti  Ti5508  1  0.53809929  0.10693036  0.71289332  1.0
  Ti  Ti5509  1  0.53809929  0.27359703  0.71289332  1.0
  Ti  Ti5510  1  0.53809929  0.44026370  0.71289332  1.0
  Ti  Ti5511  1  0.53809929  0.60693036  0.71289332  1.0
  Ti  Ti5512  1  0.53809929  0.77359703  0.71289332  1.0
  Ti  Ti5513  1  0.53809929  0.94026370  0.71289332  1.0
  Ti  Ti5514  1  0.62143262  0.10693036  0.71289332  1.0
  Ti  Ti5515  1  0.62143262  0.27359703  0.71289332  1.0
  Ti  Ti5516  1  0.62143262  0.44026370  0.71289332  1.0
  Ti  Ti5517  1  0.62143262  0.60693036  0.71289332  1.0
  Ti  Ti5518  1  0.62143262  0.77359703  0.71289332  1.0
  Ti  Ti5519  1  0.62143262  0.94026370  0.71289332  1.0
  Ti  Ti5520  1  0.70476596  0.10693036  0.71289332  1.0
  Ti  Ti5521  1  0.70476596  0.27359703  0.71289332  1.0
  Ti  Ti5522  1  0.70476596  0.44026370  0.71289332  1.0
  Ti  Ti5523  1  0.70476596  0.60693036  0.71289332  1.0
  Ti  Ti5524  1  0.70476596  0.77359703  0.71289332  1.0
  Ti  Ti5525  1  0.70476596  0.94026370  0.71289332  1.0
  Ti  Ti5526  1  0.78809929  0.10693036  0.71289332  1.0
  Ti  Ti5527  1  0.78809929  0.27359703  0.71289332  1.0
  Ti  Ti5528  1  0.78809929  0.44026370  0.71289332  1.0
  Ti  Ti5529  1  0.78809929  0.60693036  0.71289332  1.0
  Ti  Ti5530  1  0.78809929  0.77359703  0.71289332  1.0
  Ti  Ti5531  1  0.78809929  0.94026370  0.71289332  1.0
  Ti  Ti5532  1  0.87143262  0.10693036  0.71289332  1.0
  Ti  Ti5533  1  0.87143262  0.27359703  0.71289332  1.0
  Ti  Ti5534  1  0.87143262  0.44026370  0.71289332  1.0
  Ti  Ti5535  1  0.87143262  0.60693036  0.71289332  1.0
  Ti  Ti5536  1  0.87143262  0.77359703  0.71289332  1.0
  Ti  Ti5537  1  0.87143262  0.94026370  0.71289332  1.0
  Ti  Ti5538  1  0.95476596  0.10693036  0.71289332  1.0
  Ti  Ti5539  1  0.95476596  0.27359703  0.71289332  1.0
  Ti  Ti5540  1  0.95476596  0.44026370  0.71289332  1.0
  Ti  Ti5541  1  0.95476596  0.60693036  0.71289332  1.0
  Ti  Ti5542  1  0.95476596  0.77359703  0.71289332  1.0
  Ti  Ti5543  1  0.95476596  0.94026370  0.71289332  1.0
  Ti  Ti5544  1  0.05494849  0.04346081  0.65873834  1.0
  Ti  Ti5545  1  0.05494849  0.21012748  0.65873834  1.0
  Ti  Ti5546  1  0.05494849  0.37679414  0.65873834  1.0
  Ti  Ti5547  1  0.05494849  0.54346081  0.65873834  1.0
  Ti  Ti5548  1  0.05494849  0.71012748  0.65873834  1.0
  Ti  Ti5549  1  0.05494849  0.87679414  0.65873834  1.0
  Ti  Ti5550  1  0.13828182  0.04346081  0.65873834  1.0
  Ti  Ti5551  1  0.13828182  0.21012748  0.65873834  1.0
  Ti  Ti5552  1  0.13828182  0.37679414  0.65873834  1.0
  Ti  Ti5553  1  0.13828182  0.54346081  0.65873834  1.0
  Ti  Ti5554  1  0.13828182  0.71012748  0.65873834  1.0
  Ti  Ti5555  1  0.13828182  0.87679414  0.65873834  1.0
  Ti  Ti5556  1  0.22161515  0.04346081  0.65873834  1.0
  Ti  Ti5557  1  0.22161515  0.21012748  0.65873834  1.0
  Ti  Ti5558  1  0.22161515  0.37679414  0.65873834  1.0
  Ti  Ti5559  1  0.22161515  0.54346081  0.65873834  1.0
  Ti  Ti5560  1  0.22161515  0.71012748  0.65873834  1.0
  Ti  Ti5561  1  0.22161515  0.87679414  0.65873834  1.0
  Ti  Ti5562  1  0.30494849  0.04346081  0.65873834  1.0
  Ti  Ti5563  1  0.30494849  0.21012748  0.65873834  1.0
  Ti  Ti5564  1  0.30494849  0.37679414  0.65873834  1.0
  Ti  Ti5565  1  0.30494849  0.54346081  0.65873834  1.0
  Ti  Ti5566  1  0.30494849  0.71012748  0.65873834  1.0
  Ti  Ti5567  1  0.30494849  0.87679414  0.65873834  1.0
  Ti  Ti5568  1  0.38828182  0.04346081  0.65873834  1.0
  Ti  Ti5569  1  0.38828182  0.21012748  0.65873834  1.0
  Ti  Ti5570  1  0.38828182  0.37679414  0.65873834  1.0
  Ti  Ti5571  1  0.38828182  0.54346081  0.65873834  1.0
  Ti  Ti5572  1  0.38828182  0.71012748  0.65873834  1.0
  Ti  Ti5573  1  0.38828182  0.87679414  0.65873834  1.0
  Ti  Ti5574  1  0.47161515  0.04346081  0.65873834  1.0
  Ti  Ti5575  1  0.47161515  0.21012748  0.65873834  1.0
  Ti  Ti5576  1  0.47161515  0.37679414  0.65873834  1.0
  Ti  Ti5577  1  0.47161515  0.54346081  0.65873834  1.0
  Ti  Ti5578  1  0.47161515  0.71012748  0.65873834  1.0
  Ti  Ti5579  1  0.47161515  0.87679414  0.65873834  1.0
  Ti  Ti5580  1  0.55494849  0.04346081  0.65873834  1.0
  Ti  Ti5581  1  0.55494849  0.21012748  0.65873834  1.0
  Ti  Ti5582  1  0.55494849  0.37679414  0.65873834  1.0
  Ti  Ti5583  1  0.55494849  0.54346081  0.65873834  1.0
  Ti  Ti5584  1  0.55494849  0.71012748  0.65873834  1.0
  Ti  Ti5585  1  0.55494849  0.87679414  0.65873834  1.0
  Ti  Ti5586  1  0.63828182  0.04346081  0.65873834  1.0
  Ti  Ti5587  1  0.63828182  0.21012748  0.65873834  1.0
  Ti  Ti5588  1  0.63828182  0.37679414  0.65873834  1.0
  Ti  Ti5589  1  0.63828182  0.54346081  0.65873834  1.0
  Ti  Ti5590  1  0.63828182  0.71012748  0.65873834  1.0
  Ti  Ti5591  1  0.63828182  0.87679414  0.65873834  1.0
  Ti  Ti5592  1  0.72161515  0.04346081  0.65873834  1.0
  Ti  Ti5593  1  0.72161515  0.21012748  0.65873834  1.0
  Ti  Ti5594  1  0.72161515  0.37679414  0.65873834  1.0
  Ti  Ti5595  1  0.72161515  0.54346081  0.65873834  1.0
  Ti  Ti5596  1  0.72161515  0.71012748  0.65873834  1.0
  Ti  Ti5597  1  0.72161515  0.87679414  0.65873834  1.0
  Ti  Ti5598  1  0.80494849  0.04346081  0.65873834  1.0
  Ti  Ti5599  1  0.80494849  0.21012748  0.65873834  1.0
  Ti  Ti5600  1  0.80494849  0.37679414  0.65873834  1.0
  Ti  Ti5601  1  0.80494849  0.54346081  0.65873834  1.0
  Ti  Ti5602  1  0.80494849  0.71012748  0.65873834  1.0
  Ti  Ti5603  1  0.80494849  0.87679414  0.65873834  1.0
  Ti  Ti5604  1  0.88828182  0.04346081  0.65873834  1.0
  Ti  Ti5605  1  0.88828182  0.21012748  0.65873834  1.0
  Ti  Ti5606  1  0.88828182  0.37679414  0.65873834  1.0
  Ti  Ti5607  1  0.88828182  0.54346081  0.65873834  1.0
  Ti  Ti5608  1  0.88828182  0.71012748  0.65873834  1.0
  Ti  Ti5609  1  0.88828182  0.87679414  0.65873834  1.0
  Ti  Ti5610  1  0.97161515  0.04346081  0.65873834  1.0
  Ti  Ti5611  1  0.97161515  0.21012748  0.65873834  1.0
  Ti  Ti5612  1  0.97161515  0.37679414  0.65873834  1.0
  Ti  Ti5613  1  0.97161515  0.54346081  0.65873834  1.0
  Ti  Ti5614  1  0.97161515  0.71012748  0.65873834  1.0
  Ti  Ti5615  1  0.97161515  0.87679414  0.65873834  1.0
  O  O5616  1  0.08086340  0.03783557  0.27009234  1.0
  O  O5617  1  0.08086340  0.20450223  0.27009234  1.0
  O  O5618  1  0.08086340  0.37116890  0.27009234  1.0
  O  O5619  1  0.08086340  0.53783557  0.27009234  1.0
  O  O5620  1  0.08086340  0.70450223  0.27009234  1.0
  O  O5621  1  0.08086340  0.87116890  0.27009234  1.0
  O  O5622  1  0.16419674  0.03783557  0.27009234  1.0
  O  O5623  1  0.16419674  0.20450223  0.27009234  1.0
  O  O5624  1  0.16419674  0.37116890  0.27009234  1.0
  O  O5625  1  0.16419674  0.53783557  0.27009234  1.0
  O  O5626  1  0.16419674  0.70450223  0.27009234  1.0
  O  O5627  1  0.16419674  0.87116890  0.27009234  1.0
  O  O5628  1  0.24753007  0.03783557  0.27009234  1.0
  O  O5629  1  0.24753007  0.20450223  0.27009234  1.0
  O  O5630  1  0.24753007  0.37116890  0.27009234  1.0
  O  O5631  1  0.24753007  0.53783557  0.27009234  1.0
  O  O5632  1  0.24753007  0.70450223  0.27009234  1.0
  O  O5633  1  0.24753007  0.87116890  0.27009234  1.0
  O  O5634  1  0.33086340  0.03783557  0.27009234  1.0
  O  O5635  1  0.33086340  0.20450223  0.27009234  1.0
  O  O5636  1  0.33086340  0.37116890  0.27009234  1.0
  O  O5637  1  0.33086340  0.53783557  0.27009234  1.0
  O  O5638  1  0.33086340  0.70450223  0.27009234  1.0
  O  O5639  1  0.33086340  0.87116890  0.27009234  1.0
  O  O5640  1  0.41419674  0.03783557  0.27009234  1.0
  O  O5641  1  0.41419674  0.20450223  0.27009234  1.0
  O  O5642  1  0.41419674  0.37116890  0.27009234  1.0
  O  O5643  1  0.41419674  0.53783557  0.27009234  1.0
  O  O5644  1  0.41419674  0.70450223  0.27009234  1.0
  O  O5645  1  0.41419674  0.87116890  0.27009234  1.0
  O  O5646  1  0.49753007  0.03783557  0.27009234  1.0
  O  O5647  1  0.49753007  0.20450223  0.27009234  1.0
  O  O5648  1  0.49753007  0.37116890  0.27009234  1.0
  O  O5649  1  0.49753007  0.53783557  0.27009234  1.0
  O  O5650  1  0.49753007  0.70450223  0.27009234  1.0
  O  O5651  1  0.49753007  0.87116890  0.27009234  1.0
  O  O5652  1  0.58086340  0.03783557  0.27009234  1.0
  O  O5653  1  0.58086340  0.20450223  0.27009234  1.0
  O  O5654  1  0.58086340  0.37116890  0.27009234  1.0
  O  O5655  1  0.58086340  0.53783557  0.27009234  1.0
  O  O5656  1  0.58086340  0.70450223  0.27009234  1.0
  O  O5657  1  0.58086340  0.87116890  0.27009234  1.0
  O  O5658  1  0.66419674  0.03783557  0.27009234  1.0
  O  O5659  1  0.66419674  0.20450223  0.27009234  1.0
  O  O5660  1  0.66419674  0.37116890  0.27009234  1.0
  O  O5661  1  0.66419674  0.53783557  0.27009234  1.0
  O  O5662  1  0.66419674  0.70450223  0.27009234  1.0
  O  O5663  1  0.66419674  0.87116890  0.27009234  1.0
  O  O5664  1  0.74753007  0.03783557  0.27009234  1.0
  O  O5665  1  0.74753007  0.20450223  0.27009234  1.0
  O  O5666  1  0.74753007  0.37116890  0.27009234  1.0
  O  O5667  1  0.74753007  0.53783557  0.27009234  1.0
  O  O5668  1  0.74753007  0.70450223  0.27009234  1.0
  O  O5669  1  0.74753007  0.87116890  0.27009234  1.0
  O  O5670  1  0.83086340  0.03783557  0.27009234  1.0
  O  O5671  1  0.83086340  0.20450223  0.27009234  1.0
  O  O5672  1  0.83086340  0.37116890  0.27009234  1.0
  O  O5673  1  0.83086340  0.53783557  0.27009234  1.0
  O  O5674  1  0.83086340  0.70450223  0.27009234  1.0
  O  O5675  1  0.83086340  0.87116890  0.27009234  1.0
  O  O5676  1  0.91419674  0.03783557  0.27009234  1.0
  O  O5677  1  0.91419674  0.20450223  0.27009234  1.0
  O  O5678  1  0.91419674  0.37116890  0.27009234  1.0
  O  O5679  1  0.91419674  0.53783557  0.27009234  1.0
  O  O5680  1  0.91419674  0.70450223  0.27009234  1.0
  O  O5681  1  0.91419674  0.87116890  0.27009234  1.0
  O  O5682  1  0.99753007  0.03783557  0.27009234  1.0
  O  O5683  1  0.99753007  0.20450223  0.27009234  1.0
  O  O5684  1  0.99753007  0.37116890  0.27009234  1.0
  O  O5685  1  0.99753007  0.53783557  0.27009234  1.0
  O  O5686  1  0.99753007  0.70450223  0.27009234  1.0
  O  O5687  1  0.99753007  0.87116890  0.27009234  1.0
  O  O5688  1  0.05705388  0.02593080  0.34152092  1.0
  O  O5689  1  0.05705388  0.19259747  0.34152092  1.0
  O  O5690  1  0.05705388  0.35926414  0.34152092  1.0
  O  O5691  1  0.05705388  0.52593080  0.34152092  1.0
  O  O5692  1  0.05705388  0.69259747  0.34152092  1.0
  O  O5693  1  0.05705388  0.85926414  0.34152092  1.0
  O  O5694  1  0.14038721  0.02593080  0.34152092  1.0
  O  O5695  1  0.14038721  0.19259747  0.34152092  1.0
  O  O5696  1  0.14038721  0.35926414  0.34152092  1.0
  O  O5697  1  0.14038721  0.52593080  0.34152092  1.0
  O  O5698  1  0.14038721  0.69259747  0.34152092  1.0
  O  O5699  1  0.14038721  0.85926414  0.34152092  1.0
  O  O5700  1  0.22372055  0.02593080  0.34152092  1.0
  O  O5701  1  0.22372055  0.19259747  0.34152092  1.0
  O  O5702  1  0.22372055  0.35926414  0.34152092  1.0
  O  O5703  1  0.22372055  0.52593080  0.34152092  1.0
  O  O5704  1  0.22372055  0.69259747  0.34152092  1.0
  O  O5705  1  0.22372055  0.85926414  0.34152092  1.0
  O  O5706  1  0.30705388  0.02593080  0.34152092  1.0
  O  O5707  1  0.30705388  0.19259747  0.34152092  1.0
  O  O5708  1  0.30705388  0.35926414  0.34152092  1.0
  O  O5709  1  0.30705388  0.52593080  0.34152092  1.0
  O  O5710  1  0.30705388  0.69259747  0.34152092  1.0
  O  O5711  1  0.30705388  0.85926414  0.34152092  1.0
  O  O5712  1  0.39038721  0.02593080  0.34152092  1.0
  O  O5713  1  0.39038721  0.19259747  0.34152092  1.0
  O  O5714  1  0.39038721  0.35926414  0.34152092  1.0
  O  O5715  1  0.39038721  0.52593080  0.34152092  1.0
  O  O5716  1  0.39038721  0.69259747  0.34152092  1.0
  O  O5717  1  0.39038721  0.85926414  0.34152092  1.0
  O  O5718  1  0.47372055  0.02593080  0.34152092  1.0
  O  O5719  1  0.47372055  0.19259747  0.34152092  1.0
  O  O5720  1  0.47372055  0.35926414  0.34152092  1.0
  O  O5721  1  0.47372055  0.52593080  0.34152092  1.0
  O  O5722  1  0.47372055  0.69259747  0.34152092  1.0
  O  O5723  1  0.47372055  0.85926414  0.34152092  1.0
  O  O5724  1  0.55705388  0.02593080  0.34152092  1.0
  O  O5725  1  0.55705388  0.19259747  0.34152092  1.0
  O  O5726  1  0.55705388  0.35926414  0.34152092  1.0
  O  O5727  1  0.55705388  0.52593080  0.34152092  1.0
  O  O5728  1  0.55705388  0.69259747  0.34152092  1.0
  O  O5729  1  0.55705388  0.85926414  0.34152092  1.0
  O  O5730  1  0.64038721  0.02593080  0.34152092  1.0
  O  O5731  1  0.64038721  0.19259747  0.34152092  1.0
  O  O5732  1  0.64038721  0.35926414  0.34152092  1.0
  O  O5733  1  0.64038721  0.52593080  0.34152092  1.0
  O  O5734  1  0.64038721  0.69259747  0.34152092  1.0
  O  O5735  1  0.64038721  0.85926414  0.34152092  1.0
  O  O5736  1  0.72372055  0.02593080  0.34152092  1.0
  O  O5737  1  0.72372055  0.19259747  0.34152092  1.0
  O  O5738  1  0.72372055  0.35926414  0.34152092  1.0
  O  O5739  1  0.72372055  0.52593080  0.34152092  1.0
  O  O5740  1  0.72372055  0.69259747  0.34152092  1.0
  O  O5741  1  0.72372055  0.85926414  0.34152092  1.0
  O  O5742  1  0.80705388  0.02593080  0.34152092  1.0
  O  O5743  1  0.80705388  0.19259747  0.34152092  1.0
  O  O5744  1  0.80705388  0.35926414  0.34152092  1.0
  O  O5745  1  0.80705388  0.52593080  0.34152092  1.0
  O  O5746  1  0.80705388  0.69259747  0.34152092  1.0
  O  O5747  1  0.80705388  0.85926414  0.34152092  1.0
  O  O5748  1  0.89038721  0.02593080  0.34152092  1.0
  O  O5749  1  0.89038721  0.19259747  0.34152092  1.0
  O  O5750  1  0.89038721  0.35926414  0.34152092  1.0
  O  O5751  1  0.89038721  0.52593080  0.34152092  1.0
  O  O5752  1  0.89038721  0.69259747  0.34152092  1.0
  O  O5753  1  0.89038721  0.85926414  0.34152092  1.0
  O  O5754  1  0.97372055  0.02593080  0.34152092  1.0
  O  O5755  1  0.97372055  0.19259747  0.34152092  1.0
  O  O5756  1  0.97372055  0.35926414  0.34152092  1.0
  O  O5757  1  0.97372055  0.52593080  0.34152092  1.0
  O  O5758  1  0.97372055  0.69259747  0.34152092  1.0
  O  O5759  1  0.97372055  0.85926414  0.34152092  1.0
  O  O5760  1  0.00182930  0.15967992  0.25934568  1.0
  O  O5761  1  0.00182930  0.32634659  0.25934568  1.0
  O  O5762  1  0.00182930  0.49301326  0.25934568  1.0
  O  O5763  1  0.00182930  0.65967992  0.25934568  1.0
  O  O5764  1  0.00182930  0.82634659  0.25934568  1.0
  O  O5765  1  0.00182930  0.99301326  0.25934568  1.0
  O  O5766  1  0.08516263  0.15967992  0.25934568  1.0
  O  O5767  1  0.08516263  0.32634659  0.25934568  1.0
  O  O5768  1  0.08516263  0.49301326  0.25934568  1.0
  O  O5769  1  0.08516263  0.65967992  0.25934568  1.0
  O  O5770  1  0.08516263  0.82634659  0.25934568  1.0
  O  O5771  1  0.08516263  0.99301326  0.25934568  1.0
  O  O5772  1  0.16849597  0.15967992  0.25934568  1.0
  O  O5773  1  0.16849597  0.32634659  0.25934568  1.0
  O  O5774  1  0.16849597  0.49301326  0.25934568  1.0
  O  O5775  1  0.16849597  0.65967992  0.25934568  1.0
  O  O5776  1  0.16849597  0.82634659  0.25934568  1.0
  O  O5777  1  0.16849597  0.99301326  0.25934568  1.0
  O  O5778  1  0.25182930  0.15967992  0.25934568  1.0
  O  O5779  1  0.25182930  0.32634659  0.25934568  1.0
  O  O5780  1  0.25182930  0.49301326  0.25934568  1.0
  O  O5781  1  0.25182930  0.65967992  0.25934568  1.0
  O  O5782  1  0.25182930  0.82634659  0.25934568  1.0
  O  O5783  1  0.25182930  0.99301326  0.25934568  1.0
  O  O5784  1  0.33516263  0.15967992  0.25934568  1.0
  O  O5785  1  0.33516263  0.32634659  0.25934568  1.0
  O  O5786  1  0.33516263  0.49301326  0.25934568  1.0
  O  O5787  1  0.33516263  0.65967992  0.25934568  1.0
  O  O5788  1  0.33516263  0.82634659  0.25934568  1.0
  O  O5789  1  0.33516263  0.99301326  0.25934568  1.0
  O  O5790  1  0.41849597  0.15967992  0.25934568  1.0
  O  O5791  1  0.41849597  0.32634659  0.25934568  1.0
  O  O5792  1  0.41849597  0.49301326  0.25934568  1.0
  O  O5793  1  0.41849597  0.65967992  0.25934568  1.0
  O  O5794  1  0.41849597  0.82634659  0.25934568  1.0
  O  O5795  1  0.41849597  0.99301326  0.25934568  1.0
  O  O5796  1  0.50182930  0.15967992  0.25934568  1.0
  O  O5797  1  0.50182930  0.32634659  0.25934568  1.0
  O  O5798  1  0.50182930  0.49301326  0.25934568  1.0
  O  O5799  1  0.50182930  0.65967992  0.25934568  1.0
  O  O5800  1  0.50182930  0.82634659  0.25934568  1.0
  O  O5801  1  0.50182930  0.99301326  0.25934568  1.0
  O  O5802  1  0.58516263  0.15967992  0.25934568  1.0
  O  O5803  1  0.58516263  0.32634659  0.25934568  1.0
  O  O5804  1  0.58516263  0.49301326  0.25934568  1.0
  O  O5805  1  0.58516263  0.65967992  0.25934568  1.0
  O  O5806  1  0.58516263  0.82634659  0.25934568  1.0
  O  O5807  1  0.58516263  0.99301326  0.25934568  1.0
  O  O5808  1  0.66849597  0.15967992  0.25934568  1.0
  O  O5809  1  0.66849597  0.32634659  0.25934568  1.0
  O  O5810  1  0.66849597  0.49301326  0.25934568  1.0
  O  O5811  1  0.66849597  0.65967992  0.25934568  1.0
  O  O5812  1  0.66849597  0.82634659  0.25934568  1.0
  O  O5813  1  0.66849597  0.99301326  0.25934568  1.0
  O  O5814  1  0.75182930  0.15967992  0.25934568  1.0
  O  O5815  1  0.75182930  0.32634659  0.25934568  1.0
  O  O5816  1  0.75182930  0.49301326  0.25934568  1.0
  O  O5817  1  0.75182930  0.65967992  0.25934568  1.0
  O  O5818  1  0.75182930  0.82634659  0.25934568  1.0
  O  O5819  1  0.75182930  0.99301326  0.25934568  1.0
  O  O5820  1  0.83516263  0.15967992  0.25934568  1.0
  O  O5821  1  0.83516263  0.32634659  0.25934568  1.0
  O  O5822  1  0.83516263  0.49301326  0.25934568  1.0
  O  O5823  1  0.83516263  0.65967992  0.25934568  1.0
  O  O5824  1  0.83516263  0.82634659  0.25934568  1.0
  O  O5825  1  0.83516263  0.99301326  0.25934568  1.0
  O  O5826  1  0.91849597  0.15967992  0.25934568  1.0
  O  O5827  1  0.91849597  0.32634659  0.25934568  1.0
  O  O5828  1  0.91849597  0.49301326  0.25934568  1.0
  O  O5829  1  0.91849597  0.65967992  0.25934568  1.0
  O  O5830  1  0.91849597  0.82634659  0.25934568  1.0
  O  O5831  1  0.91849597  0.99301326  0.25934568  1.0
  O  O5832  1  0.06135311  0.14777516  0.33077425  1.0
  O  O5833  1  0.06135311  0.31444183  0.33077425  1.0
  O  O5834  1  0.06135311  0.48110850  0.33077425  1.0
  O  O5835  1  0.06135311  0.64777516  0.33077425  1.0
  O  O5836  1  0.06135311  0.81444183  0.33077425  1.0
  O  O5837  1  0.06135311  0.98110850  0.33077425  1.0
  O  O5838  1  0.14468644  0.14777516  0.33077425  1.0
  O  O5839  1  0.14468644  0.31444183  0.33077425  1.0
  O  O5840  1  0.14468644  0.48110850  0.33077425  1.0
  O  O5841  1  0.14468644  0.64777516  0.33077425  1.0
  O  O5842  1  0.14468644  0.81444183  0.33077425  1.0
  O  O5843  1  0.14468644  0.98110850  0.33077425  1.0
  O  O5844  1  0.22801978  0.14777516  0.33077425  1.0
  O  O5845  1  0.22801978  0.31444183  0.33077425  1.0
  O  O5846  1  0.22801978  0.48110850  0.33077425  1.0
  O  O5847  1  0.22801978  0.64777516  0.33077425  1.0
  O  O5848  1  0.22801978  0.81444183  0.33077425  1.0
  O  O5849  1  0.22801978  0.98110850  0.33077425  1.0
  O  O5850  1  0.31135311  0.14777516  0.33077425  1.0
  O  O5851  1  0.31135311  0.31444183  0.33077425  1.0
  O  O5852  1  0.31135311  0.48110850  0.33077425  1.0
  O  O5853  1  0.31135311  0.64777516  0.33077425  1.0
  O  O5854  1  0.31135311  0.81444183  0.33077425  1.0
  O  O5855  1  0.31135311  0.98110850  0.33077425  1.0
  O  O5856  1  0.39468644  0.14777516  0.33077425  1.0
  O  O5857  1  0.39468644  0.31444183  0.33077425  1.0
  O  O5858  1  0.39468644  0.48110850  0.33077425  1.0
  O  O5859  1  0.39468644  0.64777516  0.33077425  1.0
  O  O5860  1  0.39468644  0.81444183  0.33077425  1.0
  O  O5861  1  0.39468644  0.98110850  0.33077425  1.0
  O  O5862  1  0.47801978  0.14777516  0.33077425  1.0
  O  O5863  1  0.47801978  0.31444183  0.33077425  1.0
  O  O5864  1  0.47801978  0.48110850  0.33077425  1.0
  O  O5865  1  0.47801978  0.64777516  0.33077425  1.0
  O  O5866  1  0.47801978  0.81444183  0.33077425  1.0
  O  O5867  1  0.47801978  0.98110850  0.33077425  1.0
  O  O5868  1  0.56135311  0.14777516  0.33077425  1.0
  O  O5869  1  0.56135311  0.31444183  0.33077425  1.0
  O  O5870  1  0.56135311  0.48110850  0.33077425  1.0
  O  O5871  1  0.56135311  0.64777516  0.33077425  1.0
  O  O5872  1  0.56135311  0.81444183  0.33077425  1.0
  O  O5873  1  0.56135311  0.98110850  0.33077425  1.0
  O  O5874  1  0.64468644  0.14777516  0.33077425  1.0
  O  O5875  1  0.64468644  0.31444183  0.33077425  1.0
  O  O5876  1  0.64468644  0.48110850  0.33077425  1.0
  O  O5877  1  0.64468644  0.64777516  0.33077425  1.0
  O  O5878  1  0.64468644  0.81444183  0.33077425  1.0
  O  O5879  1  0.64468644  0.98110850  0.33077425  1.0
  O  O5880  1  0.72801978  0.14777516  0.33077425  1.0
  O  O5881  1  0.72801978  0.31444183  0.33077425  1.0
  O  O5882  1  0.72801978  0.48110850  0.33077425  1.0
  O  O5883  1  0.72801978  0.64777516  0.33077425  1.0
  O  O5884  1  0.72801978  0.81444183  0.33077425  1.0
  O  O5885  1  0.72801978  0.98110850  0.33077425  1.0
  O  O5886  1  0.81135311  0.14777516  0.33077425  1.0
  O  O5887  1  0.81135311  0.31444183  0.33077425  1.0
  O  O5888  1  0.81135311  0.48110850  0.33077425  1.0
  O  O5889  1  0.81135311  0.64777516  0.33077425  1.0
  O  O5890  1  0.81135311  0.81444183  0.33077425  1.0
  O  O5891  1  0.81135311  0.98110850  0.33077425  1.0
  O  O5892  1  0.89468644  0.14777516  0.33077425  1.0
  O  O5893  1  0.89468644  0.31444183  0.33077425  1.0
  O  O5894  1  0.89468644  0.48110850  0.33077425  1.0
  O  O5895  1  0.89468644  0.64777516  0.33077425  1.0
  O  O5896  1  0.89468644  0.81444183  0.33077425  1.0
  O  O5897  1  0.89468644  0.98110850  0.33077425  1.0
  O  O5898  1  0.97801978  0.14777516  0.33077425  1.0
  O  O5899  1  0.97801978  0.31444183  0.33077425  1.0
  O  O5900  1  0.97801978  0.48110850  0.33077425  1.0
  O  O5901  1  0.97801978  0.64777516  0.33077425  1.0
  O  O5902  1  0.97801978  0.81444183  0.33077425  1.0
  O  O5903  1  0.97801978  0.98110850  0.33077425  1.0
  O  O5904  1  0.03803463  0.06045847  0.27505213  1.0
  O  O5905  1  0.03803463  0.22712514  0.27505213  1.0
  O  O5906  1  0.03803463  0.39379181  0.27505213  1.0
  O  O5907  1  0.03803463  0.56045847  0.27505213  1.0
  O  O5908  1  0.03803463  0.72712514  0.27505213  1.0
  O  O5909  1  0.03803463  0.89379181  0.27505213  1.0
  O  O5910  1  0.12136796  0.06045847  0.27505213  1.0
  O  O5911  1  0.12136796  0.22712514  0.27505213  1.0
  O  O5912  1  0.12136796  0.39379181  0.27505213  1.0
  O  O5913  1  0.12136796  0.56045847  0.27505213  1.0
  O  O5914  1  0.12136796  0.72712514  0.27505213  1.0
  O  O5915  1  0.12136796  0.89379181  0.27505213  1.0
  O  O5916  1  0.20470129  0.06045847  0.27505213  1.0
  O  O5917  1  0.20470129  0.22712514  0.27505213  1.0
  O  O5918  1  0.20470129  0.39379181  0.27505213  1.0
  O  O5919  1  0.20470129  0.56045847  0.27505213  1.0
  O  O5920  1  0.20470129  0.72712514  0.27505213  1.0
  O  O5921  1  0.20470129  0.89379181  0.27505213  1.0
  O  O5922  1  0.28803463  0.06045847  0.27505213  1.0
  O  O5923  1  0.28803463  0.22712514  0.27505213  1.0
  O  O5924  1  0.28803463  0.39379181  0.27505213  1.0
  O  O5925  1  0.28803463  0.56045847  0.27505213  1.0
  O  O5926  1  0.28803463  0.72712514  0.27505213  1.0
  O  O5927  1  0.28803463  0.89379181  0.27505213  1.0
  O  O5928  1  0.37136796  0.06045847  0.27505213  1.0
  O  O5929  1  0.37136796  0.22712514  0.27505213  1.0
  O  O5930  1  0.37136796  0.39379181  0.27505213  1.0
  O  O5931  1  0.37136796  0.56045847  0.27505213  1.0
  O  O5932  1  0.37136796  0.72712514  0.27505213  1.0
  O  O5933  1  0.37136796  0.89379181  0.27505213  1.0
  O  O5934  1  0.45470129  0.06045847  0.27505213  1.0
  O  O5935  1  0.45470129  0.22712514  0.27505213  1.0
  O  O5936  1  0.45470129  0.39379181  0.27505213  1.0
  O  O5937  1  0.45470129  0.56045847  0.27505213  1.0
  O  O5938  1  0.45470129  0.72712514  0.27505213  1.0
  O  O5939  1  0.45470129  0.89379181  0.27505213  1.0
  O  O5940  1  0.53803463  0.06045847  0.27505213  1.0
  O  O5941  1  0.53803463  0.22712514  0.27505213  1.0
  O  O5942  1  0.53803463  0.39379181  0.27505213  1.0
  O  O5943  1  0.53803463  0.56045847  0.27505213  1.0
  O  O5944  1  0.53803463  0.72712514  0.27505213  1.0
  O  O5945  1  0.53803463  0.89379181  0.27505213  1.0
  O  O5946  1  0.62136796  0.06045847  0.27505213  1.0
  O  O5947  1  0.62136796  0.22712514  0.27505213  1.0
  O  O5948  1  0.62136796  0.39379181  0.27505213  1.0
  O  O5949  1  0.62136796  0.56045847  0.27505213  1.0
  O  O5950  1  0.62136796  0.72712514  0.27505213  1.0
  O  O5951  1  0.62136796  0.89379181  0.27505213  1.0
  O  O5952  1  0.70470129  0.06045847  0.27505213  1.0
  O  O5953  1  0.70470129  0.22712514  0.27505213  1.0
  O  O5954  1  0.70470129  0.39379181  0.27505213  1.0
  O  O5955  1  0.70470129  0.56045847  0.27505213  1.0
  O  O5956  1  0.70470129  0.72712514  0.27505213  1.0
  O  O5957  1  0.70470129  0.89379181  0.27505213  1.0
  O  O5958  1  0.78803463  0.06045847  0.27505213  1.0
  O  O5959  1  0.78803463  0.22712514  0.27505213  1.0
  O  O5960  1  0.78803463  0.39379181  0.27505213  1.0
  O  O5961  1  0.78803463  0.56045847  0.27505213  1.0
  O  O5962  1  0.78803463  0.72712514  0.27505213  1.0
  O  O5963  1  0.78803463  0.89379181  0.27505213  1.0
  O  O5964  1  0.87136796  0.06045847  0.27505213  1.0
  O  O5965  1  0.87136796  0.22712514  0.27505213  1.0
  O  O5966  1  0.87136796  0.39379181  0.27505213  1.0
  O  O5967  1  0.87136796  0.56045847  0.27505213  1.0
  O  O5968  1  0.87136796  0.72712514  0.27505213  1.0
  O  O5969  1  0.87136796  0.89379181  0.27505213  1.0
  O  O5970  1  0.95470129  0.06045847  0.27505213  1.0
  O  O5971  1  0.95470129  0.22712514  0.27505213  1.0
  O  O5972  1  0.95470129  0.39379181  0.27505213  1.0
  O  O5973  1  0.95470129  0.56045847  0.27505213  1.0
  O  O5974  1  0.95470129  0.72712514  0.27505213  1.0
  O  O5975  1  0.95470129  0.89379181  0.27505213  1.0
  O  O5976  1  0.01422510  0.04855371  0.34648071  1.0
  O  O5977  1  0.01422510  0.21522038  0.34648071  1.0
  O  O5978  1  0.01422510  0.38188705  0.34648071  1.0
  O  O5979  1  0.01422510  0.54855371  0.34648071  1.0
  O  O5980  1  0.01422510  0.71522038  0.34648071  1.0
  O  O5981  1  0.01422510  0.88188705  0.34648071  1.0
  O  O5982  1  0.09755844  0.04855371  0.34648071  1.0
  O  O5983  1  0.09755844  0.21522038  0.34648071  1.0
  O  O5984  1  0.09755844  0.38188705  0.34648071  1.0
  O  O5985  1  0.09755844  0.54855371  0.34648071  1.0
  O  O5986  1  0.09755844  0.71522038  0.34648071  1.0
  O  O5987  1  0.09755844  0.88188705  0.34648071  1.0
  O  O5988  1  0.18089177  0.04855371  0.34648071  1.0
  O  O5989  1  0.18089177  0.21522038  0.34648071  1.0
  O  O5990  1  0.18089177  0.38188705  0.34648071  1.0
  O  O5991  1  0.18089177  0.54855371  0.34648071  1.0
  O  O5992  1  0.18089177  0.71522038  0.34648071  1.0
  O  O5993  1  0.18089177  0.88188705  0.34648071  1.0
  O  O5994  1  0.26422510  0.04855371  0.34648071  1.0
  O  O5995  1  0.26422510  0.21522038  0.34648071  1.0
  O  O5996  1  0.26422510  0.38188705  0.34648071  1.0
  O  O5997  1  0.26422510  0.54855371  0.34648071  1.0
  O  O5998  1  0.26422510  0.71522038  0.34648071  1.0
  O  O5999  1  0.26422510  0.88188705  0.34648071  1.0
  O  O6000  1  0.34755844  0.04855371  0.34648071  1.0
  O  O6001  1  0.34755844  0.21522038  0.34648071  1.0
  O  O6002  1  0.34755844  0.38188705  0.34648071  1.0
  O  O6003  1  0.34755844  0.54855371  0.34648071  1.0
  O  O6004  1  0.34755844  0.71522038  0.34648071  1.0
  O  O6005  1  0.34755844  0.88188705  0.34648071  1.0
  O  O6006  1  0.43089177  0.04855371  0.34648071  1.0
  O  O6007  1  0.43089177  0.21522038  0.34648071  1.0
  O  O6008  1  0.43089177  0.38188705  0.34648071  1.0
  O  O6009  1  0.43089177  0.54855371  0.34648071  1.0
  O  O6010  1  0.43089177  0.71522038  0.34648071  1.0
  O  O6011  1  0.43089177  0.88188705  0.34648071  1.0
  O  O6012  1  0.51422510  0.04855371  0.34648071  1.0
  O  O6013  1  0.51422510  0.21522038  0.34648071  1.0
  O  O6014  1  0.51422510  0.38188705  0.34648071  1.0
  O  O6015  1  0.51422510  0.54855371  0.34648071  1.0
  O  O6016  1  0.51422510  0.71522038  0.34648071  1.0
  O  O6017  1  0.51422510  0.88188705  0.34648071  1.0
  O  O6018  1  0.59755844  0.04855371  0.34648071  1.0
  O  O6019  1  0.59755844  0.21522038  0.34648071  1.0
  O  O6020  1  0.59755844  0.38188705  0.34648071  1.0
  O  O6021  1  0.59755844  0.54855371  0.34648071  1.0
  O  O6022  1  0.59755844  0.71522038  0.34648071  1.0
  O  O6023  1  0.59755844  0.88188705  0.34648071  1.0
  O  O6024  1  0.68089177  0.04855371  0.34648071  1.0
  O  O6025  1  0.68089177  0.21522038  0.34648071  1.0
  O  O6026  1  0.68089177  0.38188705  0.34648071  1.0
  O  O6027  1  0.68089177  0.54855371  0.34648071  1.0
  O  O6028  1  0.68089177  0.71522038  0.34648071  1.0
  O  O6029  1  0.68089177  0.88188705  0.34648071  1.0
  O  O6030  1  0.76422510  0.04855371  0.34648071  1.0
  O  O6031  1  0.76422510  0.21522038  0.34648071  1.0
  O  O6032  1  0.76422510  0.38188705  0.34648071  1.0
  O  O6033  1  0.76422510  0.54855371  0.34648071  1.0
  O  O6034  1  0.76422510  0.71522038  0.34648071  1.0
  O  O6035  1  0.76422510  0.88188705  0.34648071  1.0
  O  O6036  1  0.84755844  0.04855371  0.34648071  1.0
  O  O6037  1  0.84755844  0.21522038  0.34648071  1.0
  O  O6038  1  0.84755844  0.38188705  0.34648071  1.0
  O  O6039  1  0.84755844  0.54855371  0.34648071  1.0
  O  O6040  1  0.84755844  0.71522038  0.34648071  1.0
  O  O6041  1  0.84755844  0.88188705  0.34648071  1.0
  O  O6042  1  0.93089177  0.04855371  0.34648071  1.0
  O  O6043  1  0.93089177  0.21522038  0.34648071  1.0
  O  O6044  1  0.93089177  0.38188705  0.34648071  1.0
  O  O6045  1  0.93089177  0.54855371  0.34648071  1.0
  O  O6046  1  0.93089177  0.71522038  0.34648071  1.0
  O  O6047  1  0.93089177  0.88188705  0.34648071  1.0
  O  O6048  1  0.04086734  0.01549897  0.26565602  1.0
  O  O6049  1  0.04086734  0.18216564  0.26565602  1.0
  O  O6050  1  0.04086734  0.34883231  0.26565602  1.0
  O  O6051  1  0.04086734  0.51549897  0.26565602  1.0
  O  O6052  1  0.04086734  0.68216564  0.26565602  1.0
  O  O6053  1  0.04086734  0.84883231  0.26565602  1.0
  O  O6054  1  0.12420067  0.01549897  0.26565602  1.0
  O  O6055  1  0.12420067  0.18216564  0.26565602  1.0
  O  O6056  1  0.12420067  0.34883231  0.26565602  1.0
  O  O6057  1  0.12420067  0.51549897  0.26565602  1.0
  O  O6058  1  0.12420067  0.68216564  0.26565602  1.0
  O  O6059  1  0.12420067  0.84883231  0.26565602  1.0
  O  O6060  1  0.20753400  0.01549897  0.26565602  1.0
  O  O6061  1  0.20753400  0.18216564  0.26565602  1.0
  O  O6062  1  0.20753400  0.34883231  0.26565602  1.0
  O  O6063  1  0.20753400  0.51549897  0.26565602  1.0
  O  O6064  1  0.20753400  0.68216564  0.26565602  1.0
  O  O6065  1  0.20753400  0.84883231  0.26565602  1.0
  O  O6066  1  0.29086734  0.01549897  0.26565602  1.0
  O  O6067  1  0.29086734  0.18216564  0.26565602  1.0
  O  O6068  1  0.29086734  0.34883231  0.26565602  1.0
  O  O6069  1  0.29086734  0.51549897  0.26565602  1.0
  O  O6070  1  0.29086734  0.68216564  0.26565602  1.0
  O  O6071  1  0.29086734  0.84883231  0.26565602  1.0
  O  O6072  1  0.37420067  0.01549897  0.26565602  1.0
  O  O6073  1  0.37420067  0.18216564  0.26565602  1.0
  O  O6074  1  0.37420067  0.34883231  0.26565602  1.0
  O  O6075  1  0.37420067  0.51549897  0.26565602  1.0
  O  O6076  1  0.37420067  0.68216564  0.26565602  1.0
  O  O6077  1  0.37420067  0.84883231  0.26565602  1.0
  O  O6078  1  0.45753400  0.01549897  0.26565602  1.0
  O  O6079  1  0.45753400  0.18216564  0.26565602  1.0
  O  O6080  1  0.45753400  0.34883231  0.26565602  1.0
  O  O6081  1  0.45753400  0.51549897  0.26565602  1.0
  O  O6082  1  0.45753400  0.68216564  0.26565602  1.0
  O  O6083  1  0.45753400  0.84883231  0.26565602  1.0
  O  O6084  1  0.54086734  0.01549897  0.26565602  1.0
  O  O6085  1  0.54086734  0.18216564  0.26565602  1.0
  O  O6086  1  0.54086734  0.34883231  0.26565602  1.0
  O  O6087  1  0.54086734  0.51549897  0.26565602  1.0
  O  O6088  1  0.54086734  0.68216564  0.26565602  1.0
  O  O6089  1  0.54086734  0.84883231  0.26565602  1.0
  O  O6090  1  0.62420067  0.01549897  0.26565602  1.0
  O  O6091  1  0.62420067  0.18216564  0.26565602  1.0
  O  O6092  1  0.62420067  0.34883231  0.26565602  1.0
  O  O6093  1  0.62420067  0.51549897  0.26565602  1.0
  O  O6094  1  0.62420067  0.68216564  0.26565602  1.0
  O  O6095  1  0.62420067  0.84883231  0.26565602  1.0
  O  O6096  1  0.70753400  0.01549897  0.26565602  1.0
  O  O6097  1  0.70753400  0.18216564  0.26565602  1.0
  O  O6098  1  0.70753400  0.34883231  0.26565602  1.0
  O  O6099  1  0.70753400  0.51549897  0.26565602  1.0
  O  O6100  1  0.70753400  0.68216564  0.26565602  1.0
  O  O6101  1  0.70753400  0.84883231  0.26565602  1.0
  O  O6102  1  0.79086734  0.01549897  0.26565602  1.0
  O  O6103  1  0.79086734  0.18216564  0.26565602  1.0
  O  O6104  1  0.79086734  0.34883231  0.26565602  1.0
  O  O6105  1  0.79086734  0.51549897  0.26565602  1.0
  O  O6106  1  0.79086734  0.68216564  0.26565602  1.0
  O  O6107  1  0.79086734  0.84883231  0.26565602  1.0
  O  O6108  1  0.87420067  0.01549897  0.26565602  1.0
  O  O6109  1  0.87420067  0.18216564  0.26565602  1.0
  O  O6110  1  0.87420067  0.34883231  0.26565602  1.0
  O  O6111  1  0.87420067  0.51549897  0.26565602  1.0
  O  O6112  1  0.87420067  0.68216564  0.26565602  1.0
  O  O6113  1  0.87420067  0.84883231  0.26565602  1.0
  O  O6114  1  0.95753400  0.01549897  0.26565602  1.0
  O  O6115  1  0.95753400  0.18216564  0.26565602  1.0
  O  O6116  1  0.95753400  0.34883231  0.26565602  1.0
  O  O6117  1  0.95753400  0.51549897  0.26565602  1.0
  O  O6118  1  0.95753400  0.68216564  0.26565602  1.0
  O  O6119  1  0.95753400  0.84883231  0.26565602  1.0
  O  O6120  1  0.01705781  0.00359421  0.33708459  1.0
  O  O6121  1  0.01705781  0.17026088  0.33708459  1.0
  O  O6122  1  0.01705781  0.33692754  0.33708459  1.0
  O  O6123  1  0.01705781  0.50359421  0.33708459  1.0
  O  O6124  1  0.01705781  0.67026088  0.33708459  1.0
  O  O6125  1  0.01705781  0.83692754  0.33708459  1.0
  O  O6126  1  0.10039115  0.00359421  0.33708459  1.0
  O  O6127  1  0.10039115  0.17026088  0.33708459  1.0
  O  O6128  1  0.10039115  0.33692754  0.33708459  1.0
  O  O6129  1  0.10039115  0.50359421  0.33708459  1.0
  O  O6130  1  0.10039115  0.67026088  0.33708459  1.0
  O  O6131  1  0.10039115  0.83692754  0.33708459  1.0
  O  O6132  1  0.18372448  0.00359421  0.33708459  1.0
  O  O6133  1  0.18372448  0.17026088  0.33708459  1.0
  O  O6134  1  0.18372448  0.33692754  0.33708459  1.0
  O  O6135  1  0.18372448  0.50359421  0.33708459  1.0
  O  O6136  1  0.18372448  0.67026088  0.33708459  1.0
  O  O6137  1  0.18372448  0.83692754  0.33708459  1.0
  O  O6138  1  0.26705781  0.00359421  0.33708459  1.0
  O  O6139  1  0.26705781  0.17026088  0.33708459  1.0
  O  O6140  1  0.26705781  0.33692754  0.33708459  1.0
  O  O6141  1  0.26705781  0.50359421  0.33708459  1.0
  O  O6142  1  0.26705781  0.67026088  0.33708459  1.0
  O  O6143  1  0.26705781  0.83692754  0.33708459  1.0
  O  O6144  1  0.35039115  0.00359421  0.33708459  1.0
  O  O6145  1  0.35039115  0.17026088  0.33708459  1.0
  O  O6146  1  0.35039115  0.33692754  0.33708459  1.0
  O  O6147  1  0.35039115  0.50359421  0.33708459  1.0
  O  O6148  1  0.35039115  0.67026088  0.33708459  1.0
  O  O6149  1  0.35039115  0.83692754  0.33708459  1.0
  O  O6150  1  0.43372448  0.00359421  0.33708459  1.0
  O  O6151  1  0.43372448  0.17026088  0.33708459  1.0
  O  O6152  1  0.43372448  0.33692754  0.33708459  1.0
  O  O6153  1  0.43372448  0.50359421  0.33708459  1.0
  O  O6154  1  0.43372448  0.67026088  0.33708459  1.0
  O  O6155  1  0.43372448  0.83692754  0.33708459  1.0
  O  O6156  1  0.51705781  0.00359421  0.33708459  1.0
  O  O6157  1  0.51705781  0.17026088  0.33708459  1.0
  O  O6158  1  0.51705781  0.33692754  0.33708459  1.0
  O  O6159  1  0.51705781  0.50359421  0.33708459  1.0
  O  O6160  1  0.51705781  0.67026088  0.33708459  1.0
  O  O6161  1  0.51705781  0.83692754  0.33708459  1.0
  O  O6162  1  0.60039115  0.00359421  0.33708459  1.0
  O  O6163  1  0.60039115  0.17026088  0.33708459  1.0
  O  O6164  1  0.60039115  0.33692754  0.33708459  1.0
  O  O6165  1  0.60039115  0.50359421  0.33708459  1.0
  O  O6166  1  0.60039115  0.67026088  0.33708459  1.0
  O  O6167  1  0.60039115  0.83692754  0.33708459  1.0
  O  O6168  1  0.68372448  0.00359421  0.33708459  1.0
  O  O6169  1  0.68372448  0.17026088  0.33708459  1.0
  O  O6170  1  0.68372448  0.33692754  0.33708459  1.0
  O  O6171  1  0.68372448  0.50359421  0.33708459  1.0
  O  O6172  1  0.68372448  0.67026088  0.33708459  1.0
  O  O6173  1  0.68372448  0.83692754  0.33708459  1.0
  O  O6174  1  0.76705781  0.00359421  0.33708459  1.0
  O  O6175  1  0.76705781  0.17026088  0.33708459  1.0
  O  O6176  1  0.76705781  0.33692754  0.33708459  1.0
  O  O6177  1  0.76705781  0.50359421  0.33708459  1.0
  O  O6178  1  0.76705781  0.67026088  0.33708459  1.0
  O  O6179  1  0.76705781  0.83692754  0.33708459  1.0
  O  O6180  1  0.85039115  0.00359421  0.33708459  1.0
  O  O6181  1  0.85039115  0.17026088  0.33708459  1.0
  O  O6182  1  0.85039115  0.33692754  0.33708459  1.0
  O  O6183  1  0.85039115  0.50359421  0.33708459  1.0
  O  O6184  1  0.85039115  0.67026088  0.33708459  1.0
  O  O6185  1  0.85039115  0.83692754  0.33708459  1.0
  O  O6186  1  0.93372448  0.00359421  0.33708459  1.0
  O  O6187  1  0.93372448  0.17026088  0.33708459  1.0
  O  O6188  1  0.93372448  0.33692754  0.33708459  1.0
  O  O6189  1  0.93372448  0.50359421  0.33708459  1.0
  O  O6190  1  0.93372448  0.67026088  0.33708459  1.0
  O  O6191  1  0.93372448  0.83692754  0.33708459  1.0
  O  O6192  1  0.01058612  0.02217381  0.22949821  1.0
  O  O6193  1  0.01058612  0.18884048  0.22949821  1.0
  O  O6194  1  0.01058612  0.35550714  0.22949821  1.0
  O  O6195  1  0.01058612  0.52217381  0.22949821  1.0
  O  O6196  1  0.01058612  0.68884048  0.22949821  1.0
  O  O6197  1  0.01058612  0.85550714  0.22949821  1.0
  O  O6198  1  0.09391945  0.02217381  0.22949821  1.0
  O  O6199  1  0.09391945  0.18884048  0.22949821  1.0
  O  O6200  1  0.09391945  0.35550714  0.22949821  1.0
  O  O6201  1  0.09391945  0.52217381  0.22949821  1.0
  O  O6202  1  0.09391945  0.68884048  0.22949821  1.0
  O  O6203  1  0.09391945  0.85550714  0.22949821  1.0
  O  O6204  1  0.17725279  0.02217381  0.22949821  1.0
  O  O6205  1  0.17725279  0.18884048  0.22949821  1.0
  O  O6206  1  0.17725279  0.35550714  0.22949821  1.0
  O  O6207  1  0.17725279  0.52217381  0.22949821  1.0
  O  O6208  1  0.17725279  0.68884048  0.22949821  1.0
  O  O6209  1  0.17725279  0.85550714  0.22949821  1.0
  O  O6210  1  0.26058612  0.02217381  0.22949821  1.0
  O  O6211  1  0.26058612  0.18884048  0.22949821  1.0
  O  O6212  1  0.26058612  0.35550714  0.22949821  1.0
  O  O6213  1  0.26058612  0.52217381  0.22949821  1.0
  O  O6214  1  0.26058612  0.68884048  0.22949821  1.0
  O  O6215  1  0.26058612  0.85550714  0.22949821  1.0
  O  O6216  1  0.34391945  0.02217381  0.22949821  1.0
  O  O6217  1  0.34391945  0.18884048  0.22949821  1.0
  O  O6218  1  0.34391945  0.35550714  0.22949821  1.0
  O  O6219  1  0.34391945  0.52217381  0.22949821  1.0
  O  O6220  1  0.34391945  0.68884048  0.22949821  1.0
  O  O6221  1  0.34391945  0.85550714  0.22949821  1.0
  O  O6222  1  0.42725279  0.02217381  0.22949821  1.0
  O  O6223  1  0.42725279  0.18884048  0.22949821  1.0
  O  O6224  1  0.42725279  0.35550714  0.22949821  1.0
  O  O6225  1  0.42725279  0.52217381  0.22949821  1.0
  O  O6226  1  0.42725279  0.68884048  0.22949821  1.0
  O  O6227  1  0.42725279  0.85550714  0.22949821  1.0
  O  O6228  1  0.51058612  0.02217381  0.22949821  1.0
  O  O6229  1  0.51058612  0.18884048  0.22949821  1.0
  O  O6230  1  0.51058612  0.35550714  0.22949821  1.0
  O  O6231  1  0.51058612  0.52217381  0.22949821  1.0
  O  O6232  1  0.51058612  0.68884048  0.22949821  1.0
  O  O6233  1  0.51058612  0.85550714  0.22949821  1.0
  O  O6234  1  0.59391945  0.02217381  0.22949821  1.0
  O  O6235  1  0.59391945  0.18884048  0.22949821  1.0
  O  O6236  1  0.59391945  0.35550714  0.22949821  1.0
  O  O6237  1  0.59391945  0.52217381  0.22949821  1.0
  O  O6238  1  0.59391945  0.68884048  0.22949821  1.0
  O  O6239  1  0.59391945  0.85550714  0.22949821  1.0
  O  O6240  1  0.67725279  0.02217381  0.22949821  1.0
  O  O6241  1  0.67725279  0.18884048  0.22949821  1.0
  O  O6242  1  0.67725279  0.35550714  0.22949821  1.0
  O  O6243  1  0.67725279  0.52217381  0.22949821  1.0
  O  O6244  1  0.67725279  0.68884048  0.22949821  1.0
  O  O6245  1  0.67725279  0.85550714  0.22949821  1.0
  O  O6246  1  0.76058612  0.02217381  0.22949821  1.0
  O  O6247  1  0.76058612  0.18884048  0.22949821  1.0
  O  O6248  1  0.76058612  0.35550714  0.22949821  1.0
  O  O6249  1  0.76058612  0.52217381  0.22949821  1.0
  O  O6250  1  0.76058612  0.68884048  0.22949821  1.0
  O  O6251  1  0.76058612  0.85550714  0.22949821  1.0
  O  O6252  1  0.84391945  0.02217381  0.22949821  1.0
  O  O6253  1  0.84391945  0.18884048  0.22949821  1.0
  O  O6254  1  0.84391945  0.35550714  0.22949821  1.0
  O  O6255  1  0.84391945  0.52217381  0.22949821  1.0
  O  O6256  1  0.84391945  0.68884048  0.22949821  1.0
  O  O6257  1  0.84391945  0.85550714  0.22949821  1.0
  O  O6258  1  0.92725279  0.02217381  0.22949821  1.0
  O  O6259  1  0.92725279  0.18884048  0.22949821  1.0
  O  O6260  1  0.92725279  0.35550714  0.22949821  1.0
  O  O6261  1  0.92725279  0.52217381  0.22949821  1.0
  O  O6262  1  0.92725279  0.68884048  0.22949821  1.0
  O  O6263  1  0.92725279  0.85550714  0.22949821  1.0
  O  O6264  1  0.07010993  0.01026905  0.30092678  1.0
  O  O6265  1  0.07010993  0.17693571  0.30092678  1.0
  O  O6266  1  0.07010993  0.34360238  0.30092678  1.0
  O  O6267  1  0.07010993  0.51026905  0.30092678  1.0
  O  O6268  1  0.07010993  0.67693571  0.30092678  1.0
  O  O6269  1  0.07010993  0.84360238  0.30092678  1.0
  O  O6270  1  0.15344326  0.01026905  0.30092678  1.0
  O  O6271  1  0.15344326  0.17693571  0.30092678  1.0
  O  O6272  1  0.15344326  0.34360238  0.30092678  1.0
  O  O6273  1  0.15344326  0.51026905  0.30092678  1.0
  O  O6274  1  0.15344326  0.67693571  0.30092678  1.0
  O  O6275  1  0.15344326  0.84360238  0.30092678  1.0
  O  O6276  1  0.23677660  0.01026905  0.30092678  1.0
  O  O6277  1  0.23677660  0.17693571  0.30092678  1.0
  O  O6278  1  0.23677660  0.34360238  0.30092678  1.0
  O  O6279  1  0.23677660  0.51026905  0.30092678  1.0
  O  O6280  1  0.23677660  0.67693571  0.30092678  1.0
  O  O6281  1  0.23677660  0.84360238  0.30092678  1.0
  O  O6282  1  0.32010993  0.01026905  0.30092678  1.0
  O  O6283  1  0.32010993  0.17693571  0.30092678  1.0
  O  O6284  1  0.32010993  0.34360238  0.30092678  1.0
  O  O6285  1  0.32010993  0.51026905  0.30092678  1.0
  O  O6286  1  0.32010993  0.67693571  0.30092678  1.0
  O  O6287  1  0.32010993  0.84360238  0.30092678  1.0
  O  O6288  1  0.40344326  0.01026905  0.30092678  1.0
  O  O6289  1  0.40344326  0.17693571  0.30092678  1.0
  O  O6290  1  0.40344326  0.34360238  0.30092678  1.0
  O  O6291  1  0.40344326  0.51026905  0.30092678  1.0
  O  O6292  1  0.40344326  0.67693571  0.30092678  1.0
  O  O6293  1  0.40344326  0.84360238  0.30092678  1.0
  O  O6294  1  0.48677660  0.01026905  0.30092678  1.0
  O  O6295  1  0.48677660  0.17693571  0.30092678  1.0
  O  O6296  1  0.48677660  0.34360238  0.30092678  1.0
  O  O6297  1  0.48677660  0.51026905  0.30092678  1.0
  O  O6298  1  0.48677660  0.67693571  0.30092678  1.0
  O  O6299  1  0.48677660  0.84360238  0.30092678  1.0
  O  O6300  1  0.57010993  0.01026905  0.30092678  1.0
  O  O6301  1  0.57010993  0.17693571  0.30092678  1.0
  O  O6302  1  0.57010993  0.34360238  0.30092678  1.0
  O  O6303  1  0.57010993  0.51026905  0.30092678  1.0
  O  O6304  1  0.57010993  0.67693571  0.30092678  1.0
  O  O6305  1  0.57010993  0.84360238  0.30092678  1.0
  O  O6306  1  0.65344326  0.01026905  0.30092678  1.0
  O  O6307  1  0.65344326  0.17693571  0.30092678  1.0
  O  O6308  1  0.65344326  0.34360238  0.30092678  1.0
  O  O6309  1  0.65344326  0.51026905  0.30092678  1.0
  O  O6310  1  0.65344326  0.67693571  0.30092678  1.0
  O  O6311  1  0.65344326  0.84360238  0.30092678  1.0
  O  O6312  1  0.73677660  0.01026905  0.30092678  1.0
  O  O6313  1  0.73677660  0.17693571  0.30092678  1.0
  O  O6314  1  0.73677660  0.34360238  0.30092678  1.0
  O  O6315  1  0.73677660  0.51026905  0.30092678  1.0
  O  O6316  1  0.73677660  0.67693571  0.30092678  1.0
  O  O6317  1  0.73677660  0.84360238  0.30092678  1.0
  O  O6318  1  0.82010993  0.01026905  0.30092678  1.0
  O  O6319  1  0.82010993  0.17693571  0.30092678  1.0
  O  O6320  1  0.82010993  0.34360238  0.30092678  1.0
  O  O6321  1  0.82010993  0.51026905  0.30092678  1.0
  O  O6322  1  0.82010993  0.67693571  0.30092678  1.0
  O  O6323  1  0.82010993  0.84360238  0.30092678  1.0
  O  O6324  1  0.90344326  0.01026905  0.30092678  1.0
  O  O6325  1  0.90344326  0.17693571  0.30092678  1.0
  O  O6326  1  0.90344326  0.34360238  0.30092678  1.0
  O  O6327  1  0.90344326  0.51026905  0.30092678  1.0
  O  O6328  1  0.90344326  0.67693571  0.30092678  1.0
  O  O6329  1  0.90344326  0.84360238  0.30092678  1.0
  O  O6330  1  0.98677660  0.01026905  0.30092678  1.0
  O  O6331  1  0.98677660  0.17693571  0.30092678  1.0
  O  O6332  1  0.98677660  0.34360238  0.30092678  1.0
  O  O6333  1  0.98677660  0.51026905  0.30092678  1.0
  O  O6334  1  0.98677660  0.67693571  0.30092678  1.0
  O  O6335  1  0.98677660  0.84360238  0.30092678  1.0
  O  O6336  1  0.00775642  0.06712912  0.23889930  1.0
  O  O6337  1  0.00775642  0.23379579  0.23889930  1.0
  O  O6338  1  0.00775642  0.40046245  0.23889930  1.0
  O  O6339  1  0.00775642  0.56712912  0.23889930  1.0
  O  O6340  1  0.00775642  0.73379579  0.23889930  1.0
  O  O6341  1  0.00775642  0.90046245  0.23889930  1.0
  O  O6342  1  0.09108975  0.06712912  0.23889930  1.0
  O  O6343  1  0.09108975  0.23379579  0.23889930  1.0
  O  O6344  1  0.09108975  0.40046245  0.23889930  1.0
  O  O6345  1  0.09108975  0.56712912  0.23889930  1.0
  O  O6346  1  0.09108975  0.73379579  0.23889930  1.0
  O  O6347  1  0.09108975  0.90046245  0.23889930  1.0
  O  O6348  1  0.17442308  0.06712912  0.23889930  1.0
  O  O6349  1  0.17442308  0.23379579  0.23889930  1.0
  O  O6350  1  0.17442308  0.40046245  0.23889930  1.0
  O  O6351  1  0.17442308  0.56712912  0.23889930  1.0
  O  O6352  1  0.17442308  0.73379579  0.23889930  1.0
  O  O6353  1  0.17442308  0.90046245  0.23889930  1.0
  O  O6354  1  0.25775642  0.06712912  0.23889930  1.0
  O  O6355  1  0.25775642  0.23379579  0.23889930  1.0
  O  O6356  1  0.25775642  0.40046245  0.23889930  1.0
  O  O6357  1  0.25775642  0.56712912  0.23889930  1.0
  O  O6358  1  0.25775642  0.73379579  0.23889930  1.0
  O  O6359  1  0.25775642  0.90046245  0.23889930  1.0
  O  O6360  1  0.34108975  0.06712912  0.23889930  1.0
  O  O6361  1  0.34108975  0.23379579  0.23889930  1.0
  O  O6362  1  0.34108975  0.40046245  0.23889930  1.0
  O  O6363  1  0.34108975  0.56712912  0.23889930  1.0
  O  O6364  1  0.34108975  0.73379579  0.23889930  1.0
  O  O6365  1  0.34108975  0.90046245  0.23889930  1.0
  O  O6366  1  0.42442308  0.06712912  0.23889930  1.0
  O  O6367  1  0.42442308  0.23379579  0.23889930  1.0
  O  O6368  1  0.42442308  0.40046245  0.23889930  1.0
  O  O6369  1  0.42442308  0.56712912  0.23889930  1.0
  O  O6370  1  0.42442308  0.73379579  0.23889930  1.0
  O  O6371  1  0.42442308  0.90046245  0.23889930  1.0
  O  O6372  1  0.50775642  0.06712912  0.23889930  1.0
  O  O6373  1  0.50775642  0.23379579  0.23889930  1.0
  O  O6374  1  0.50775642  0.40046245  0.23889930  1.0
  O  O6375  1  0.50775642  0.56712912  0.23889930  1.0
  O  O6376  1  0.50775642  0.73379579  0.23889930  1.0
  O  O6377  1  0.50775642  0.90046245  0.23889930  1.0
  O  O6378  1  0.59108975  0.06712912  0.23889930  1.0
  O  O6379  1  0.59108975  0.23379579  0.23889930  1.0
  O  O6380  1  0.59108975  0.40046245  0.23889930  1.0
  O  O6381  1  0.59108975  0.56712912  0.23889930  1.0
  O  O6382  1  0.59108975  0.73379579  0.23889930  1.0
  O  O6383  1  0.59108975  0.90046245  0.23889930  1.0
  O  O6384  1  0.67442308  0.06712912  0.23889930  1.0
  O  O6385  1  0.67442308  0.23379579  0.23889930  1.0
  O  O6386  1  0.67442308  0.40046245  0.23889930  1.0
  O  O6387  1  0.67442308  0.56712912  0.23889930  1.0
  O  O6388  1  0.67442308  0.73379579  0.23889930  1.0
  O  O6389  1  0.67442308  0.90046245  0.23889930  1.0
  O  O6390  1  0.75775642  0.06712912  0.23889930  1.0
  O  O6391  1  0.75775642  0.23379579  0.23889930  1.0
  O  O6392  1  0.75775642  0.40046245  0.23889930  1.0
  O  O6393  1  0.75775642  0.56712912  0.23889930  1.0
  O  O6394  1  0.75775642  0.73379579  0.23889930  1.0
  O  O6395  1  0.75775642  0.90046245  0.23889930  1.0
  O  O6396  1  0.84108975  0.06712912  0.23889930  1.0
  O  O6397  1  0.84108975  0.23379579  0.23889930  1.0
  O  O6398  1  0.84108975  0.40046245  0.23889930  1.0
  O  O6399  1  0.84108975  0.56712912  0.23889930  1.0
  O  O6400  1  0.84108975  0.73379579  0.23889930  1.0
  O  O6401  1  0.84108975  0.90046245  0.23889930  1.0
  O  O6402  1  0.92442308  0.06712912  0.23889930  1.0
  O  O6403  1  0.92442308  0.23379579  0.23889930  1.0
  O  O6404  1  0.92442308  0.40046245  0.23889930  1.0
  O  O6405  1  0.92442308  0.56712912  0.23889930  1.0
  O  O6406  1  0.92442308  0.73379579  0.23889930  1.0
  O  O6407  1  0.92442308  0.90046245  0.23889930  1.0
  O  O6408  1  0.06728023  0.05522436  0.31032787  1.0
  O  O6409  1  0.06728023  0.22189102  0.31032787  1.0
  O  O6410  1  0.06728023  0.38855769  0.31032787  1.0
  O  O6411  1  0.06728023  0.55522436  0.31032787  1.0
  O  O6412  1  0.06728023  0.72189102  0.31032787  1.0
  O  O6413  1  0.06728023  0.88855769  0.31032787  1.0
  O  O6414  1  0.15061356  0.05522436  0.31032787  1.0
  O  O6415  1  0.15061356  0.22189102  0.31032787  1.0
  O  O6416  1  0.15061356  0.38855769  0.31032787  1.0
  O  O6417  1  0.15061356  0.55522436  0.31032787  1.0
  O  O6418  1  0.15061356  0.72189102  0.31032787  1.0
  O  O6419  1  0.15061356  0.88855769  0.31032787  1.0
  O  O6420  1  0.23394689  0.05522436  0.31032787  1.0
  O  O6421  1  0.23394689  0.22189102  0.31032787  1.0
  O  O6422  1  0.23394689  0.38855769  0.31032787  1.0
  O  O6423  1  0.23394689  0.55522436  0.31032787  1.0
  O  O6424  1  0.23394689  0.72189102  0.31032787  1.0
  O  O6425  1  0.23394689  0.88855769  0.31032787  1.0
  O  O6426  1  0.31728023  0.05522436  0.31032787  1.0
  O  O6427  1  0.31728023  0.22189102  0.31032787  1.0
  O  O6428  1  0.31728023  0.38855769  0.31032787  1.0
  O  O6429  1  0.31728023  0.55522436  0.31032787  1.0
  O  O6430  1  0.31728023  0.72189102  0.31032787  1.0
  O  O6431  1  0.31728023  0.88855769  0.31032787  1.0
  O  O6432  1  0.40061356  0.05522436  0.31032787  1.0
  O  O6433  1  0.40061356  0.22189102  0.31032787  1.0
  O  O6434  1  0.40061356  0.38855769  0.31032787  1.0
  O  O6435  1  0.40061356  0.55522436  0.31032787  1.0
  O  O6436  1  0.40061356  0.72189102  0.31032787  1.0
  O  O6437  1  0.40061356  0.88855769  0.31032787  1.0
  O  O6438  1  0.48394689  0.05522436  0.31032787  1.0
  O  O6439  1  0.48394689  0.22189102  0.31032787  1.0
  O  O6440  1  0.48394689  0.38855769  0.31032787  1.0
  O  O6441  1  0.48394689  0.55522436  0.31032787  1.0
  O  O6442  1  0.48394689  0.72189102  0.31032787  1.0
  O  O6443  1  0.48394689  0.88855769  0.31032787  1.0
  O  O6444  1  0.56728023  0.05522436  0.31032787  1.0
  O  O6445  1  0.56728023  0.22189102  0.31032787  1.0
  O  O6446  1  0.56728023  0.38855769  0.31032787  1.0
  O  O6447  1  0.56728023  0.55522436  0.31032787  1.0
  O  O6448  1  0.56728023  0.72189102  0.31032787  1.0
  O  O6449  1  0.56728023  0.88855769  0.31032787  1.0
  O  O6450  1  0.65061356  0.05522436  0.31032787  1.0
  O  O6451  1  0.65061356  0.22189102  0.31032787  1.0
  O  O6452  1  0.65061356  0.38855769  0.31032787  1.0
  O  O6453  1  0.65061356  0.55522436  0.31032787  1.0
  O  O6454  1  0.65061356  0.72189102  0.31032787  1.0
  O  O6455  1  0.65061356  0.88855769  0.31032787  1.0
  O  O6456  1  0.73394689  0.05522436  0.31032787  1.0
  O  O6457  1  0.73394689  0.22189102  0.31032787  1.0
  O  O6458  1  0.73394689  0.38855769  0.31032787  1.0
  O  O6459  1  0.73394689  0.55522436  0.31032787  1.0
  O  O6460  1  0.73394689  0.72189102  0.31032787  1.0
  O  O6461  1  0.73394689  0.88855769  0.31032787  1.0
  O  O6462  1  0.81728023  0.05522436  0.31032787  1.0
  O  O6463  1  0.81728023  0.22189102  0.31032787  1.0
  O  O6464  1  0.81728023  0.38855769  0.31032787  1.0
  O  O6465  1  0.81728023  0.55522436  0.31032787  1.0
  O  O6466  1  0.81728023  0.72189102  0.31032787  1.0
  O  O6467  1  0.81728023  0.88855769  0.31032787  1.0
  O  O6468  1  0.90061356  0.05522436  0.31032787  1.0
  O  O6469  1  0.90061356  0.22189102  0.31032787  1.0
  O  O6470  1  0.90061356  0.38855769  0.31032787  1.0
  O  O6471  1  0.90061356  0.55522436  0.31032787  1.0
  O  O6472  1  0.90061356  0.72189102  0.31032787  1.0
  O  O6473  1  0.90061356  0.88855769  0.31032787  1.0
  O  O6474  1  0.98394689  0.05522436  0.31032787  1.0
  O  O6475  1  0.98394689  0.22189102  0.31032787  1.0
  O  O6476  1  0.98394689  0.38855769  0.31032787  1.0
  O  O6477  1  0.98394689  0.55522436  0.31032787  1.0
  O  O6478  1  0.98394689  0.72189102  0.31032787  1.0
  O  O6479  1  0.98394689  0.88855769  0.31032787  1.0
  O  O6480  1  0.00521280  0.11369839  0.25092543  1.0
  O  O6481  1  0.00521280  0.28036506  0.25092543  1.0
  O  O6482  1  0.00521280  0.44703173  0.25092543  1.0
  O  O6483  1  0.00521280  0.61369839  0.25092543  1.0
  O  O6484  1  0.00521280  0.78036506  0.25092543  1.0
  O  O6485  1  0.00521280  0.94703173  0.25092543  1.0
  O  O6486  1  0.08854614  0.11369839  0.25092543  1.0
  O  O6487  1  0.08854614  0.28036506  0.25092543  1.0
  O  O6488  1  0.08854614  0.44703173  0.25092543  1.0
  O  O6489  1  0.08854614  0.61369839  0.25092543  1.0
  O  O6490  1  0.08854614  0.78036506  0.25092543  1.0
  O  O6491  1  0.08854614  0.94703173  0.25092543  1.0
  O  O6492  1  0.17187947  0.11369839  0.25092543  1.0
  O  O6493  1  0.17187947  0.28036506  0.25092543  1.0
  O  O6494  1  0.17187947  0.44703173  0.25092543  1.0
  O  O6495  1  0.17187947  0.61369839  0.25092543  1.0
  O  O6496  1  0.17187947  0.78036506  0.25092543  1.0
  O  O6497  1  0.17187947  0.94703173  0.25092543  1.0
  O  O6498  1  0.25521280  0.11369839  0.25092543  1.0
  O  O6499  1  0.25521280  0.28036506  0.25092543  1.0
  O  O6500  1  0.25521280  0.44703173  0.25092543  1.0
  O  O6501  1  0.25521280  0.61369839  0.25092543  1.0
  O  O6502  1  0.25521280  0.78036506  0.25092543  1.0
  O  O6503  1  0.25521280  0.94703173  0.25092543  1.0
  O  O6504  1  0.33854614  0.11369839  0.25092543  1.0
  O  O6505  1  0.33854614  0.28036506  0.25092543  1.0
  O  O6506  1  0.33854614  0.44703173  0.25092543  1.0
  O  O6507  1  0.33854614  0.61369839  0.25092543  1.0
  O  O6508  1  0.33854614  0.78036506  0.25092543  1.0
  O  O6509  1  0.33854614  0.94703173  0.25092543  1.0
  O  O6510  1  0.42187947  0.11369839  0.25092543  1.0
  O  O6511  1  0.42187947  0.28036506  0.25092543  1.0
  O  O6512  1  0.42187947  0.44703173  0.25092543  1.0
  O  O6513  1  0.42187947  0.61369839  0.25092543  1.0
  O  O6514  1  0.42187947  0.78036506  0.25092543  1.0
  O  O6515  1  0.42187947  0.94703173  0.25092543  1.0
  O  O6516  1  0.50521280  0.11369839  0.25092543  1.0
  O  O6517  1  0.50521280  0.28036506  0.25092543  1.0
  O  O6518  1  0.50521280  0.44703173  0.25092543  1.0
  O  O6519  1  0.50521280  0.61369839  0.25092543  1.0
  O  O6520  1  0.50521280  0.78036506  0.25092543  1.0
  O  O6521  1  0.50521280  0.94703173  0.25092543  1.0
  O  O6522  1  0.58854614  0.11369839  0.25092543  1.0
  O  O6523  1  0.58854614  0.28036506  0.25092543  1.0
  O  O6524  1  0.58854614  0.44703173  0.25092543  1.0
  O  O6525  1  0.58854614  0.61369839  0.25092543  1.0
  O  O6526  1  0.58854614  0.78036506  0.25092543  1.0
  O  O6527  1  0.58854614  0.94703173  0.25092543  1.0
  O  O6528  1  0.67187947  0.11369839  0.25092543  1.0
  O  O6529  1  0.67187947  0.28036506  0.25092543  1.0
  O  O6530  1  0.67187947  0.44703173  0.25092543  1.0
  O  O6531  1  0.67187947  0.61369839  0.25092543  1.0
  O  O6532  1  0.67187947  0.78036506  0.25092543  1.0
  O  O6533  1  0.67187947  0.94703173  0.25092543  1.0
  O  O6534  1  0.75521280  0.11369839  0.25092543  1.0
  O  O6535  1  0.75521280  0.28036506  0.25092543  1.0
  O  O6536  1  0.75521280  0.44703173  0.25092543  1.0
  O  O6537  1  0.75521280  0.61369839  0.25092543  1.0
  O  O6538  1  0.75521280  0.78036506  0.25092543  1.0
  O  O6539  1  0.75521280  0.94703173  0.25092543  1.0
  O  O6540  1  0.83854614  0.11369839  0.25092543  1.0
  O  O6541  1  0.83854614  0.28036506  0.25092543  1.0
  O  O6542  1  0.83854614  0.44703173  0.25092543  1.0
  O  O6543  1  0.83854614  0.61369839  0.25092543  1.0
  O  O6544  1  0.83854614  0.78036506  0.25092543  1.0
  O  O6545  1  0.83854614  0.94703173  0.25092543  1.0
  O  O6546  1  0.92187947  0.11369839  0.25092543  1.0
  O  O6547  1  0.92187947  0.28036506  0.25092543  1.0
  O  O6548  1  0.92187947  0.44703173  0.25092543  1.0
  O  O6549  1  0.92187947  0.61369839  0.25092543  1.0
  O  O6550  1  0.92187947  0.78036506  0.25092543  1.0
  O  O6551  1  0.92187947  0.94703173  0.25092543  1.0
  O  O6552  1  0.06473661  0.10179363  0.32235400  1.0
  O  O6553  1  0.06473661  0.26846030  0.32235400  1.0
  O  O6554  1  0.06473661  0.43512696  0.32235400  1.0
  O  O6555  1  0.06473661  0.60179363  0.32235400  1.0
  O  O6556  1  0.06473661  0.76846030  0.32235400  1.0
  O  O6557  1  0.06473661  0.93512696  0.32235400  1.0
  O  O6558  1  0.14806995  0.10179363  0.32235400  1.0
  O  O6559  1  0.14806995  0.26846030  0.32235400  1.0
  O  O6560  1  0.14806995  0.43512696  0.32235400  1.0
  O  O6561  1  0.14806995  0.60179363  0.32235400  1.0
  O  O6562  1  0.14806995  0.76846030  0.32235400  1.0
  O  O6563  1  0.14806995  0.93512696  0.32235400  1.0
  O  O6564  1  0.23140328  0.10179363  0.32235400  1.0
  O  O6565  1  0.23140328  0.26846030  0.32235400  1.0
  O  O6566  1  0.23140328  0.43512696  0.32235400  1.0
  O  O6567  1  0.23140328  0.60179363  0.32235400  1.0
  O  O6568  1  0.23140328  0.76846030  0.32235400  1.0
  O  O6569  1  0.23140328  0.93512696  0.32235400  1.0
  O  O6570  1  0.31473661  0.10179363  0.32235400  1.0
  O  O6571  1  0.31473661  0.26846030  0.32235400  1.0
  O  O6572  1  0.31473661  0.43512696  0.32235400  1.0
  O  O6573  1  0.31473661  0.60179363  0.32235400  1.0
  O  O6574  1  0.31473661  0.76846030  0.32235400  1.0
  O  O6575  1  0.31473661  0.93512696  0.32235400  1.0
  O  O6576  1  0.39806995  0.10179363  0.32235400  1.0
  O  O6577  1  0.39806995  0.26846030  0.32235400  1.0
  O  O6578  1  0.39806995  0.43512696  0.32235400  1.0
  O  O6579  1  0.39806995  0.60179363  0.32235400  1.0
  O  O6580  1  0.39806995  0.76846030  0.32235400  1.0
  O  O6581  1  0.39806995  0.93512696  0.32235400  1.0
  O  O6582  1  0.48140328  0.10179363  0.32235400  1.0
  O  O6583  1  0.48140328  0.26846030  0.32235400  1.0
  O  O6584  1  0.48140328  0.43512696  0.32235400  1.0
  O  O6585  1  0.48140328  0.60179363  0.32235400  1.0
  O  O6586  1  0.48140328  0.76846030  0.32235400  1.0
  O  O6587  1  0.48140328  0.93512696  0.32235400  1.0
  O  O6588  1  0.56473661  0.10179363  0.32235400  1.0
  O  O6589  1  0.56473661  0.26846030  0.32235400  1.0
  O  O6590  1  0.56473661  0.43512696  0.32235400  1.0
  O  O6591  1  0.56473661  0.60179363  0.32235400  1.0
  O  O6592  1  0.56473661  0.76846030  0.32235400  1.0
  O  O6593  1  0.56473661  0.93512696  0.32235400  1.0
  O  O6594  1  0.64806995  0.10179363  0.32235400  1.0
  O  O6595  1  0.64806995  0.26846030  0.32235400  1.0
  O  O6596  1  0.64806995  0.43512696  0.32235400  1.0
  O  O6597  1  0.64806995  0.60179363  0.32235400  1.0
  O  O6598  1  0.64806995  0.76846030  0.32235400  1.0
  O  O6599  1  0.64806995  0.93512696  0.32235400  1.0
  O  O6600  1  0.73140328  0.10179363  0.32235400  1.0
  O  O6601  1  0.73140328  0.26846030  0.32235400  1.0
  O  O6602  1  0.73140328  0.43512696  0.32235400  1.0
  O  O6603  1  0.73140328  0.60179363  0.32235400  1.0
  O  O6604  1  0.73140328  0.76846030  0.32235400  1.0
  O  O6605  1  0.73140328  0.93512696  0.32235400  1.0
  O  O6606  1  0.81473661  0.10179363  0.32235400  1.0
  O  O6607  1  0.81473661  0.26846030  0.32235400  1.0
  O  O6608  1  0.81473661  0.43512696  0.32235400  1.0
  O  O6609  1  0.81473661  0.60179363  0.32235400  1.0
  O  O6610  1  0.81473661  0.76846030  0.32235400  1.0
  O  O6611  1  0.81473661  0.93512696  0.32235400  1.0
  O  O6612  1  0.89806995  0.10179363  0.32235400  1.0
  O  O6613  1  0.89806995  0.26846030  0.32235400  1.0
  O  O6614  1  0.89806995  0.43512696  0.32235400  1.0
  O  O6615  1  0.89806995  0.60179363  0.32235400  1.0
  O  O6616  1  0.89806995  0.76846030  0.32235400  1.0
  O  O6617  1  0.89806995  0.93512696  0.32235400  1.0
  O  O6618  1  0.98140328  0.10179363  0.32235400  1.0
  O  O6619  1  0.98140328  0.26846030  0.32235400  1.0
  O  O6620  1  0.98140328  0.43512696  0.32235400  1.0
  O  O6621  1  0.98140328  0.60179363  0.32235400  1.0
  O  O6622  1  0.98140328  0.76846030  0.32235400  1.0
  O  O6623  1  0.98140328  0.93512696  0.32235400  1.0
  O  O6624  1  0.05109083  0.04483232  0.23448753  1.0
  O  O6625  1  0.05109083  0.21149899  0.23448753  1.0
  O  O6626  1  0.05109083  0.37816565  0.23448753  1.0
  O  O6627  1  0.05109083  0.54483232  0.23448753  1.0
  O  O6628  1  0.05109083  0.71149899  0.23448753  1.0
  O  O6629  1  0.05109083  0.87816565  0.23448753  1.0
  O  O6630  1  0.13442417  0.04483232  0.23448753  1.0
  O  O6631  1  0.13442417  0.21149899  0.23448753  1.0
  O  O6632  1  0.13442417  0.37816565  0.23448753  1.0
  O  O6633  1  0.13442417  0.54483232  0.23448753  1.0
  O  O6634  1  0.13442417  0.71149899  0.23448753  1.0
  O  O6635  1  0.13442417  0.87816565  0.23448753  1.0
  O  O6636  1  0.21775750  0.04483232  0.23448753  1.0
  O  O6637  1  0.21775750  0.21149899  0.23448753  1.0
  O  O6638  1  0.21775750  0.37816565  0.23448753  1.0
  O  O6639  1  0.21775750  0.54483232  0.23448753  1.0
  O  O6640  1  0.21775750  0.71149899  0.23448753  1.0
  O  O6641  1  0.21775750  0.87816565  0.23448753  1.0
  O  O6642  1  0.30109083  0.04483232  0.23448753  1.0
  O  O6643  1  0.30109083  0.21149899  0.23448753  1.0
  O  O6644  1  0.30109083  0.37816565  0.23448753  1.0
  O  O6645  1  0.30109083  0.54483232  0.23448753  1.0
  O  O6646  1  0.30109083  0.71149899  0.23448753  1.0
  O  O6647  1  0.30109083  0.87816565  0.23448753  1.0
  O  O6648  1  0.38442417  0.04483232  0.23448753  1.0
  O  O6649  1  0.38442417  0.21149899  0.23448753  1.0
  O  O6650  1  0.38442417  0.37816565  0.23448753  1.0
  O  O6651  1  0.38442417  0.54483232  0.23448753  1.0
  O  O6652  1  0.38442417  0.71149899  0.23448753  1.0
  O  O6653  1  0.38442417  0.87816565  0.23448753  1.0
  O  O6654  1  0.46775750  0.04483232  0.23448753  1.0
  O  O6655  1  0.46775750  0.21149899  0.23448753  1.0
  O  O6656  1  0.46775750  0.37816565  0.23448753  1.0
  O  O6657  1  0.46775750  0.54483232  0.23448753  1.0
  O  O6658  1  0.46775750  0.71149899  0.23448753  1.0
  O  O6659  1  0.46775750  0.87816565  0.23448753  1.0
  O  O6660  1  0.55109083  0.04483232  0.23448753  1.0
  O  O6661  1  0.55109083  0.21149899  0.23448753  1.0
  O  O6662  1  0.55109083  0.37816565  0.23448753  1.0
  O  O6663  1  0.55109083  0.54483232  0.23448753  1.0
  O  O6664  1  0.55109083  0.71149899  0.23448753  1.0
  O  O6665  1  0.55109083  0.87816565  0.23448753  1.0
  O  O6666  1  0.63442417  0.04483232  0.23448753  1.0
  O  O6667  1  0.63442417  0.21149899  0.23448753  1.0
  O  O6668  1  0.63442417  0.37816565  0.23448753  1.0
  O  O6669  1  0.63442417  0.54483232  0.23448753  1.0
  O  O6670  1  0.63442417  0.71149899  0.23448753  1.0
  O  O6671  1  0.63442417  0.87816565  0.23448753  1.0
  O  O6672  1  0.71775750  0.04483232  0.23448753  1.0
  O  O6673  1  0.71775750  0.21149899  0.23448753  1.0
  O  O6674  1  0.71775750  0.37816565  0.23448753  1.0
  O  O6675  1  0.71775750  0.54483232  0.23448753  1.0
  O  O6676  1  0.71775750  0.71149899  0.23448753  1.0
  O  O6677  1  0.71775750  0.87816565  0.23448753  1.0
  O  O6678  1  0.80109083  0.04483232  0.23448753  1.0
  O  O6679  1  0.80109083  0.21149899  0.23448753  1.0
  O  O6680  1  0.80109083  0.37816565  0.23448753  1.0
  O  O6681  1  0.80109083  0.54483232  0.23448753  1.0
  O  O6682  1  0.80109083  0.71149899  0.23448753  1.0
  O  O6683  1  0.80109083  0.87816565  0.23448753  1.0
  O  O6684  1  0.88442417  0.04483232  0.23448753  1.0
  O  O6685  1  0.88442417  0.21149899  0.23448753  1.0
  O  O6686  1  0.88442417  0.37816565  0.23448753  1.0
  O  O6687  1  0.88442417  0.54483232  0.23448753  1.0
  O  O6688  1  0.88442417  0.71149899  0.23448753  1.0
  O  O6689  1  0.88442417  0.87816565  0.23448753  1.0
  O  O6690  1  0.96775750  0.04483232  0.23448753  1.0
  O  O6691  1  0.96775750  0.21149899  0.23448753  1.0
  O  O6692  1  0.96775750  0.37816565  0.23448753  1.0
  O  O6693  1  0.96775750  0.54483232  0.23448753  1.0
  O  O6694  1  0.96775750  0.71149899  0.23448753  1.0
  O  O6695  1  0.96775750  0.87816565  0.23448753  1.0
  O  O6696  1  0.02728131  0.03292756  0.30591610  1.0
  O  O6697  1  0.02728131  0.19959422  0.30591610  1.0
  O  O6698  1  0.02728131  0.36626089  0.30591610  1.0
  O  O6699  1  0.02728131  0.53292756  0.30591610  1.0
  O  O6700  1  0.02728131  0.69959422  0.30591610  1.0
  O  O6701  1  0.02728131  0.86626089  0.30591610  1.0
  O  O6702  1  0.11061464  0.03292756  0.30591610  1.0
  O  O6703  1  0.11061464  0.19959422  0.30591610  1.0
  O  O6704  1  0.11061464  0.36626089  0.30591610  1.0
  O  O6705  1  0.11061464  0.53292756  0.30591610  1.0
  O  O6706  1  0.11061464  0.69959422  0.30591610  1.0
  O  O6707  1  0.11061464  0.86626089  0.30591610  1.0
  O  O6708  1  0.19394798  0.03292756  0.30591610  1.0
  O  O6709  1  0.19394798  0.19959422  0.30591610  1.0
  O  O6710  1  0.19394798  0.36626089  0.30591610  1.0
  O  O6711  1  0.19394798  0.53292756  0.30591610  1.0
  O  O6712  1  0.19394798  0.69959422  0.30591610  1.0
  O  O6713  1  0.19394798  0.86626089  0.30591610  1.0
  O  O6714  1  0.27728131  0.03292756  0.30591610  1.0
  O  O6715  1  0.27728131  0.19959422  0.30591610  1.0
  O  O6716  1  0.27728131  0.36626089  0.30591610  1.0
  O  O6717  1  0.27728131  0.53292756  0.30591610  1.0
  O  O6718  1  0.27728131  0.69959422  0.30591610  1.0
  O  O6719  1  0.27728131  0.86626089  0.30591610  1.0
  O  O6720  1  0.36061464  0.03292756  0.30591610  1.0
  O  O6721  1  0.36061464  0.19959422  0.30591610  1.0
  O  O6722  1  0.36061464  0.36626089  0.30591610  1.0
  O  O6723  1  0.36061464  0.53292756  0.30591610  1.0
  O  O6724  1  0.36061464  0.69959422  0.30591610  1.0
  O  O6725  1  0.36061464  0.86626089  0.30591610  1.0
  O  O6726  1  0.44394798  0.03292756  0.30591610  1.0
  O  O6727  1  0.44394798  0.19959422  0.30591610  1.0
  O  O6728  1  0.44394798  0.36626089  0.30591610  1.0
  O  O6729  1  0.44394798  0.53292756  0.30591610  1.0
  O  O6730  1  0.44394798  0.69959422  0.30591610  1.0
  O  O6731  1  0.44394798  0.86626089  0.30591610  1.0
  O  O6732  1  0.52728131  0.03292756  0.30591610  1.0
  O  O6733  1  0.52728131  0.19959422  0.30591610  1.0
  O  O6734  1  0.52728131  0.36626089  0.30591610  1.0
  O  O6735  1  0.52728131  0.53292756  0.30591610  1.0
  O  O6736  1  0.52728131  0.69959422  0.30591610  1.0
  O  O6737  1  0.52728131  0.86626089  0.30591610  1.0
  O  O6738  1  0.61061464  0.03292756  0.30591610  1.0
  O  O6739  1  0.61061464  0.19959422  0.30591610  1.0
  O  O6740  1  0.61061464  0.36626089  0.30591610  1.0
  O  O6741  1  0.61061464  0.53292756  0.30591610  1.0
  O  O6742  1  0.61061464  0.69959422  0.30591610  1.0
  O  O6743  1  0.61061464  0.86626089  0.30591610  1.0
  O  O6744  1  0.69394798  0.03292756  0.30591610  1.0
  O  O6745  1  0.69394798  0.19959422  0.30591610  1.0
  O  O6746  1  0.69394798  0.36626089  0.30591610  1.0
  O  O6747  1  0.69394798  0.53292756  0.30591610  1.0
  O  O6748  1  0.69394798  0.69959422  0.30591610  1.0
  O  O6749  1  0.69394798  0.86626089  0.30591610  1.0
  O  O6750  1  0.77728131  0.03292756  0.30591610  1.0
  O  O6751  1  0.77728131  0.19959422  0.30591610  1.0
  O  O6752  1  0.77728131  0.36626089  0.30591610  1.0
  O  O6753  1  0.77728131  0.53292756  0.30591610  1.0
  O  O6754  1  0.77728131  0.69959422  0.30591610  1.0
  O  O6755  1  0.77728131  0.86626089  0.30591610  1.0
  O  O6756  1  0.86061464  0.03292756  0.30591610  1.0
  O  O6757  1  0.86061464  0.19959422  0.30591610  1.0
  O  O6758  1  0.86061464  0.36626089  0.30591610  1.0
  O  O6759  1  0.86061464  0.53292756  0.30591610  1.0
  O  O6760  1  0.86061464  0.69959422  0.30591610  1.0
  O  O6761  1  0.86061464  0.86626089  0.30591610  1.0
  O  O6762  1  0.94394798  0.03292756  0.30591610  1.0
  O  O6763  1  0.94394798  0.19959422  0.30591610  1.0
  O  O6764  1  0.94394798  0.36626089  0.30591610  1.0
  O  O6765  1  0.94394798  0.53292756  0.30591610  1.0
  O  O6766  1  0.94394798  0.69959422  0.30591610  1.0
  O  O6767  1  0.94394798  0.86626089  0.30591610  1.0
  O  O6768  1  0.01487570  0.14299770  0.22014108  1.0
  O  O6769  1  0.01487570  0.30966437  0.22014108  1.0
  O  O6770  1  0.01487570  0.47633103  0.22014108  1.0
  O  O6771  1  0.01487570  0.64299770  0.22014108  1.0
  O  O6772  1  0.01487570  0.80966437  0.22014108  1.0
  O  O6773  1  0.01487570  0.97633103  0.22014108  1.0
  O  O6774  1  0.09820904  0.14299770  0.22014108  1.0
  O  O6775  1  0.09820904  0.30966437  0.22014108  1.0
  O  O6776  1  0.09820904  0.47633103  0.22014108  1.0
  O  O6777  1  0.09820904  0.64299770  0.22014108  1.0
  O  O6778  1  0.09820904  0.80966437  0.22014108  1.0
  O  O6779  1  0.09820904  0.97633103  0.22014108  1.0
  O  O6780  1  0.18154237  0.14299770  0.22014108  1.0
  O  O6781  1  0.18154237  0.30966437  0.22014108  1.0
  O  O6782  1  0.18154237  0.47633103  0.22014108  1.0
  O  O6783  1  0.18154237  0.64299770  0.22014108  1.0
  O  O6784  1  0.18154237  0.80966437  0.22014108  1.0
  O  O6785  1  0.18154237  0.97633103  0.22014108  1.0
  O  O6786  1  0.26487570  0.14299770  0.22014108  1.0
  O  O6787  1  0.26487570  0.30966437  0.22014108  1.0
  O  O6788  1  0.26487570  0.47633103  0.22014108  1.0
  O  O6789  1  0.26487570  0.64299770  0.22014108  1.0
  O  O6790  1  0.26487570  0.80966437  0.22014108  1.0
  O  O6791  1  0.26487570  0.97633103  0.22014108  1.0
  O  O6792  1  0.34820904  0.14299770  0.22014108  1.0
  O  O6793  1  0.34820904  0.30966437  0.22014108  1.0
  O  O6794  1  0.34820904  0.47633103  0.22014108  1.0
  O  O6795  1  0.34820904  0.64299770  0.22014108  1.0
  O  O6796  1  0.34820904  0.80966437  0.22014108  1.0
  O  O6797  1  0.34820904  0.97633103  0.22014108  1.0
  O  O6798  1  0.43154237  0.14299770  0.22014108  1.0
  O  O6799  1  0.43154237  0.30966437  0.22014108  1.0
  O  O6800  1  0.43154237  0.47633103  0.22014108  1.0
  O  O6801  1  0.43154237  0.64299770  0.22014108  1.0
  O  O6802  1  0.43154237  0.80966437  0.22014108  1.0
  O  O6803  1  0.43154237  0.97633103  0.22014108  1.0
  O  O6804  1  0.51487570  0.14299770  0.22014108  1.0
  O  O6805  1  0.51487570  0.30966437  0.22014108  1.0
  O  O6806  1  0.51487570  0.47633103  0.22014108  1.0
  O  O6807  1  0.51487570  0.64299770  0.22014108  1.0
  O  O6808  1  0.51487570  0.80966437  0.22014108  1.0
  O  O6809  1  0.51487570  0.97633103  0.22014108  1.0
  O  O6810  1  0.59820904  0.14299770  0.22014108  1.0
  O  O6811  1  0.59820904  0.30966437  0.22014108  1.0
  O  O6812  1  0.59820904  0.47633103  0.22014108  1.0
  O  O6813  1  0.59820904  0.64299770  0.22014108  1.0
  O  O6814  1  0.59820904  0.80966437  0.22014108  1.0
  O  O6815  1  0.59820904  0.97633103  0.22014108  1.0
  O  O6816  1  0.68154237  0.14299770  0.22014108  1.0
  O  O6817  1  0.68154237  0.30966437  0.22014108  1.0
  O  O6818  1  0.68154237  0.47633103  0.22014108  1.0
  O  O6819  1  0.68154237  0.64299770  0.22014108  1.0
  O  O6820  1  0.68154237  0.80966437  0.22014108  1.0
  O  O6821  1  0.68154237  0.97633103  0.22014108  1.0
  O  O6822  1  0.76487570  0.14299770  0.22014108  1.0
  O  O6823  1  0.76487570  0.30966437  0.22014108  1.0
  O  O6824  1  0.76487570  0.47633103  0.22014108  1.0
  O  O6825  1  0.76487570  0.64299770  0.22014108  1.0
  O  O6826  1  0.76487570  0.80966437  0.22014108  1.0
  O  O6827  1  0.76487570  0.97633103  0.22014108  1.0
  O  O6828  1  0.84820904  0.14299770  0.22014108  1.0
  O  O6829  1  0.84820904  0.30966437  0.22014108  1.0
  O  O6830  1  0.84820904  0.47633103  0.22014108  1.0
  O  O6831  1  0.84820904  0.64299770  0.22014108  1.0
  O  O6832  1  0.84820904  0.80966437  0.22014108  1.0
  O  O6833  1  0.84820904  0.97633103  0.22014108  1.0
  O  O6834  1  0.93154237  0.14299770  0.22014108  1.0
  O  O6835  1  0.93154237  0.30966437  0.22014108  1.0
  O  O6836  1  0.93154237  0.47633103  0.22014108  1.0
  O  O6837  1  0.93154237  0.64299770  0.22014108  1.0
  O  O6838  1  0.93154237  0.80966437  0.22014108  1.0
  O  O6839  1  0.93154237  0.97633103  0.22014108  1.0
  O  O6840  1  0.07439951  0.13109294  0.29156965  1.0
  O  O6841  1  0.07439951  0.29775960  0.29156965  1.0
  O  O6842  1  0.07439951  0.46442627  0.29156965  1.0
  O  O6843  1  0.07439951  0.63109294  0.29156965  1.0
  O  O6844  1  0.07439951  0.79775960  0.29156965  1.0
  O  O6845  1  0.07439951  0.96442627  0.29156965  1.0
  O  O6846  1  0.15773285  0.13109294  0.29156965  1.0
  O  O6847  1  0.15773285  0.29775960  0.29156965  1.0
  O  O6848  1  0.15773285  0.46442627  0.29156965  1.0
  O  O6849  1  0.15773285  0.63109294  0.29156965  1.0
  O  O6850  1  0.15773285  0.79775960  0.29156965  1.0
  O  O6851  1  0.15773285  0.96442627  0.29156965  1.0
  O  O6852  1  0.24106618  0.13109294  0.29156965  1.0
  O  O6853  1  0.24106618  0.29775960  0.29156965  1.0
  O  O6854  1  0.24106618  0.46442627  0.29156965  1.0
  O  O6855  1  0.24106618  0.63109294  0.29156965  1.0
  O  O6856  1  0.24106618  0.79775960  0.29156965  1.0
  O  O6857  1  0.24106618  0.96442627  0.29156965  1.0
  O  O6858  1  0.32439951  0.13109294  0.29156965  1.0
  O  O6859  1  0.32439951  0.29775960  0.29156965  1.0
  O  O6860  1  0.32439951  0.46442627  0.29156965  1.0
  O  O6861  1  0.32439951  0.63109294  0.29156965  1.0
  O  O6862  1  0.32439951  0.79775960  0.29156965  1.0
  O  O6863  1  0.32439951  0.96442627  0.29156965  1.0
  O  O6864  1  0.40773285  0.13109294  0.29156965  1.0
  O  O6865  1  0.40773285  0.29775960  0.29156965  1.0
  O  O6866  1  0.40773285  0.46442627  0.29156965  1.0
  O  O6867  1  0.40773285  0.63109294  0.29156965  1.0
  O  O6868  1  0.40773285  0.79775960  0.29156965  1.0
  O  O6869  1  0.40773285  0.96442627  0.29156965  1.0
  O  O6870  1  0.49106618  0.13109294  0.29156965  1.0
  O  O6871  1  0.49106618  0.29775960  0.29156965  1.0
  O  O6872  1  0.49106618  0.46442627  0.29156965  1.0
  O  O6873  1  0.49106618  0.63109294  0.29156965  1.0
  O  O6874  1  0.49106618  0.79775960  0.29156965  1.0
  O  O6875  1  0.49106618  0.96442627  0.29156965  1.0
  O  O6876  1  0.57439951  0.13109294  0.29156965  1.0
  O  O6877  1  0.57439951  0.29775960  0.29156965  1.0
  O  O6878  1  0.57439951  0.46442627  0.29156965  1.0
  O  O6879  1  0.57439951  0.63109294  0.29156965  1.0
  O  O6880  1  0.57439951  0.79775960  0.29156965  1.0
  O  O6881  1  0.57439951  0.96442627  0.29156965  1.0
  O  O6882  1  0.65773285  0.13109294  0.29156965  1.0
  O  O6883  1  0.65773285  0.29775960  0.29156965  1.0
  O  O6884  1  0.65773285  0.46442627  0.29156965  1.0
  O  O6885  1  0.65773285  0.63109294  0.29156965  1.0
  O  O6886  1  0.65773285  0.79775960  0.29156965  1.0
  O  O6887  1  0.65773285  0.96442627  0.29156965  1.0
  O  O6888  1  0.74106618  0.13109294  0.29156965  1.0
  O  O6889  1  0.74106618  0.29775960  0.29156965  1.0
  O  O6890  1  0.74106618  0.46442627  0.29156965  1.0
  O  O6891  1  0.74106618  0.63109294  0.29156965  1.0
  O  O6892  1  0.74106618  0.79775960  0.29156965  1.0
  O  O6893  1  0.74106618  0.96442627  0.29156965  1.0
  O  O6894  1  0.82439951  0.13109294  0.29156965  1.0
  O  O6895  1  0.82439951  0.29775960  0.29156965  1.0
  O  O6896  1  0.82439951  0.46442627  0.29156965  1.0
  O  O6897  1  0.82439951  0.63109294  0.29156965  1.0
  O  O6898  1  0.82439951  0.79775960  0.29156965  1.0
  O  O6899  1  0.82439951  0.96442627  0.29156965  1.0
  O  O6900  1  0.90773285  0.13109294  0.29156965  1.0
  O  O6901  1  0.90773285  0.29775960  0.29156965  1.0
  O  O6902  1  0.90773285  0.46442627  0.29156965  1.0
  O  O6903  1  0.90773285  0.63109294  0.29156965  1.0
  O  O6904  1  0.90773285  0.79775960  0.29156965  1.0
  O  O6905  1  0.90773285  0.96442627  0.29156965  1.0
  O  O6906  1  0.99106618  0.13109294  0.29156965  1.0
  O  O6907  1  0.99106618  0.29775960  0.29156965  1.0
  O  O6908  1  0.99106618  0.46442627  0.29156965  1.0
  O  O6909  1  0.99106618  0.63109294  0.29156965  1.0
  O  O6910  1  0.99106618  0.79775960  0.29156965  1.0
  O  O6911  1  0.99106618  0.96442627  0.29156965  1.0
  O  O6912  1  0.05708965  0.16516530  0.22352084  1.0
  O  O6913  1  0.05708965  0.33183196  0.22352084  1.0
  O  O6914  1  0.05708965  0.49849863  0.22352084  1.0
  O  O6915  1  0.05708965  0.66516530  0.22352084  1.0
  O  O6916  1  0.05708965  0.83183196  0.22352084  1.0
  O  O6917  1  0.05708965  0.99849863  0.22352084  1.0
  O  O6918  1  0.14042298  0.16516530  0.22352084  1.0
  O  O6919  1  0.14042298  0.33183196  0.22352084  1.0
  O  O6920  1  0.14042298  0.49849863  0.22352084  1.0
  O  O6921  1  0.14042298  0.66516530  0.22352084  1.0
  O  O6922  1  0.14042298  0.83183196  0.22352084  1.0
  O  O6923  1  0.14042298  0.99849863  0.22352084  1.0
  O  O6924  1  0.22375632  0.16516530  0.22352084  1.0
  O  O6925  1  0.22375632  0.33183196  0.22352084  1.0
  O  O6926  1  0.22375632  0.49849863  0.22352084  1.0
  O  O6927  1  0.22375632  0.66516530  0.22352084  1.0
  O  O6928  1  0.22375632  0.83183196  0.22352084  1.0
  O  O6929  1  0.22375632  0.99849863  0.22352084  1.0
  O  O6930  1  0.30708965  0.16516530  0.22352084  1.0
  O  O6931  1  0.30708965  0.33183196  0.22352084  1.0
  O  O6932  1  0.30708965  0.49849863  0.22352084  1.0
  O  O6933  1  0.30708965  0.66516530  0.22352084  1.0
  O  O6934  1  0.30708965  0.83183196  0.22352084  1.0
  O  O6935  1  0.30708965  0.99849863  0.22352084  1.0
  O  O6936  1  0.39042298  0.16516530  0.22352084  1.0
  O  O6937  1  0.39042298  0.33183196  0.22352084  1.0
  O  O6938  1  0.39042298  0.49849863  0.22352084  1.0
  O  O6939  1  0.39042298  0.66516530  0.22352084  1.0
  O  O6940  1  0.39042298  0.83183196  0.22352084  1.0
  O  O6941  1  0.39042298  0.99849863  0.22352084  1.0
  O  O6942  1  0.47375632  0.16516530  0.22352084  1.0
  O  O6943  1  0.47375632  0.33183196  0.22352084  1.0
  O  O6944  1  0.47375632  0.49849863  0.22352084  1.0
  O  O6945  1  0.47375632  0.66516530  0.22352084  1.0
  O  O6946  1  0.47375632  0.83183196  0.22352084  1.0
  O  O6947  1  0.47375632  0.99849863  0.22352084  1.0
  O  O6948  1  0.55708965  0.16516530  0.22352084  1.0
  O  O6949  1  0.55708965  0.33183196  0.22352084  1.0
  O  O6950  1  0.55708965  0.49849863  0.22352084  1.0
  O  O6951  1  0.55708965  0.66516530  0.22352084  1.0
  O  O6952  1  0.55708965  0.83183196  0.22352084  1.0
  O  O6953  1  0.55708965  0.99849863  0.22352084  1.0
  O  O6954  1  0.64042298  0.16516530  0.22352084  1.0
  O  O6955  1  0.64042298  0.33183196  0.22352084  1.0
  O  O6956  1  0.64042298  0.49849863  0.22352084  1.0
  O  O6957  1  0.64042298  0.66516530  0.22352084  1.0
  O  O6958  1  0.64042298  0.83183196  0.22352084  1.0
  O  O6959  1  0.64042298  0.99849863  0.22352084  1.0
  O  O6960  1  0.72375632  0.16516530  0.22352084  1.0
  O  O6961  1  0.72375632  0.33183196  0.22352084  1.0
  O  O6962  1  0.72375632  0.49849863  0.22352084  1.0
  O  O6963  1  0.72375632  0.66516530  0.22352084  1.0
  O  O6964  1  0.72375632  0.83183196  0.22352084  1.0
  O  O6965  1  0.72375632  0.99849863  0.22352084  1.0
  O  O6966  1  0.80708965  0.16516530  0.22352084  1.0
  O  O6967  1  0.80708965  0.33183196  0.22352084  1.0
  O  O6968  1  0.80708965  0.49849863  0.22352084  1.0
  O  O6969  1  0.80708965  0.66516530  0.22352084  1.0
  O  O6970  1  0.80708965  0.83183196  0.22352084  1.0
  O  O6971  1  0.80708965  0.99849863  0.22352084  1.0
  O  O6972  1  0.89042298  0.16516530  0.22352084  1.0
  O  O6973  1  0.89042298  0.33183196  0.22352084  1.0
  O  O6974  1  0.89042298  0.49849863  0.22352084  1.0
  O  O6975  1  0.89042298  0.66516530  0.22352084  1.0
  O  O6976  1  0.89042298  0.83183196  0.22352084  1.0
  O  O6977  1  0.89042298  0.99849863  0.22352084  1.0
  O  O6978  1  0.97375632  0.16516530  0.22352084  1.0
  O  O6979  1  0.97375632  0.33183196  0.22352084  1.0
  O  O6980  1  0.97375632  0.49849863  0.22352084  1.0
  O  O6981  1  0.97375632  0.66516530  0.22352084  1.0
  O  O6982  1  0.97375632  0.83183196  0.22352084  1.0
  O  O6983  1  0.97375632  0.99849863  0.22352084  1.0
  O  O6984  1  0.03328013  0.15326054  0.29494941  1.0
  O  O6985  1  0.03328013  0.31992720  0.29494941  1.0
  O  O6986  1  0.03328013  0.48659387  0.29494941  1.0
  O  O6987  1  0.03328013  0.65326054  0.29494941  1.0
  O  O6988  1  0.03328013  0.81992720  0.29494941  1.0
  O  O6989  1  0.03328013  0.98659387  0.29494941  1.0
  O  O6990  1  0.11661346  0.15326054  0.29494941  1.0
  O  O6991  1  0.11661346  0.31992720  0.29494941  1.0
  O  O6992  1  0.11661346  0.48659387  0.29494941  1.0
  O  O6993  1  0.11661346  0.65326054  0.29494941  1.0
  O  O6994  1  0.11661346  0.81992720  0.29494941  1.0
  O  O6995  1  0.11661346  0.98659387  0.29494941  1.0
  O  O6996  1  0.19994679  0.15326054  0.29494941  1.0
  O  O6997  1  0.19994679  0.31992720  0.29494941  1.0
  O  O6998  1  0.19994679  0.48659387  0.29494941  1.0
  O  O6999  1  0.19994679  0.65326054  0.29494941  1.0
  O  O7000  1  0.19994679  0.81992720  0.29494941  1.0
  O  O7001  1  0.19994679  0.98659387  0.29494941  1.0
  O  O7002  1  0.28328013  0.15326054  0.29494941  1.0
  O  O7003  1  0.28328013  0.31992720  0.29494941  1.0
  O  O7004  1  0.28328013  0.48659387  0.29494941  1.0
  O  O7005  1  0.28328013  0.65326054  0.29494941  1.0
  O  O7006  1  0.28328013  0.81992720  0.29494941  1.0
  O  O7007  1  0.28328013  0.98659387  0.29494941  1.0
  O  O7008  1  0.36661346  0.15326054  0.29494941  1.0
  O  O7009  1  0.36661346  0.31992720  0.29494941  1.0
  O  O7010  1  0.36661346  0.48659387  0.29494941  1.0
  O  O7011  1  0.36661346  0.65326054  0.29494941  1.0
  O  O7012  1  0.36661346  0.81992720  0.29494941  1.0
  O  O7013  1  0.36661346  0.98659387  0.29494941  1.0
  O  O7014  1  0.44994679  0.15326054  0.29494941  1.0
  O  O7015  1  0.44994679  0.31992720  0.29494941  1.0
  O  O7016  1  0.44994679  0.48659387  0.29494941  1.0
  O  O7017  1  0.44994679  0.65326054  0.29494941  1.0
  O  O7018  1  0.44994679  0.81992720  0.29494941  1.0
  O  O7019  1  0.44994679  0.98659387  0.29494941  1.0
  O  O7020  1  0.53328013  0.15326054  0.29494941  1.0
  O  O7021  1  0.53328013  0.31992720  0.29494941  1.0
  O  O7022  1  0.53328013  0.48659387  0.29494941  1.0
  O  O7023  1  0.53328013  0.65326054  0.29494941  1.0
  O  O7024  1  0.53328013  0.81992720  0.29494941  1.0
  O  O7025  1  0.53328013  0.98659387  0.29494941  1.0
  O  O7026  1  0.61661346  0.15326054  0.29494941  1.0
  O  O7027  1  0.61661346  0.31992720  0.29494941  1.0
  O  O7028  1  0.61661346  0.48659387  0.29494941  1.0
  O  O7029  1  0.61661346  0.65326054  0.29494941  1.0
  O  O7030  1  0.61661346  0.81992720  0.29494941  1.0
  O  O7031  1  0.61661346  0.98659387  0.29494941  1.0
  O  O7032  1  0.69994679  0.15326054  0.29494941  1.0
  O  O7033  1  0.69994679  0.31992720  0.29494941  1.0
  O  O7034  1  0.69994679  0.48659387  0.29494941  1.0
  O  O7035  1  0.69994679  0.65326054  0.29494941  1.0
  O  O7036  1  0.69994679  0.81992720  0.29494941  1.0
  O  O7037  1  0.69994679  0.98659387  0.29494941  1.0
  O  O7038  1  0.78328013  0.15326054  0.29494941  1.0
  O  O7039  1  0.78328013  0.31992720  0.29494941  1.0
  O  O7040  1  0.78328013  0.48659387  0.29494941  1.0
  O  O7041  1  0.78328013  0.65326054  0.29494941  1.0
  O  O7042  1  0.78328013  0.81992720  0.29494941  1.0
  O  O7043  1  0.78328013  0.98659387  0.29494941  1.0
  O  O7044  1  0.86661346  0.15326054  0.29494941  1.0
  O  O7045  1  0.86661346  0.31992720  0.29494941  1.0
  O  O7046  1  0.86661346  0.48659387  0.29494941  1.0
  O  O7047  1  0.86661346  0.65326054  0.29494941  1.0
  O  O7048  1  0.86661346  0.81992720  0.29494941  1.0
  O  O7049  1  0.86661346  0.98659387  0.29494941  1.0
  O  O7050  1  0.94994679  0.15326054  0.29494941  1.0
  O  O7051  1  0.94994679  0.31992720  0.29494941  1.0
  O  O7052  1  0.94994679  0.48659387  0.29494941  1.0
  O  O7053  1  0.94994679  0.65326054  0.29494941  1.0
  O  O7054  1  0.94994679  0.81992720  0.29494941  1.0
  O  O7055  1  0.94994679  0.98659387  0.29494941  1.0
  O  O7056  1  0.04679993  0.08964070  0.24521988  1.0
  O  O7057  1  0.04679993  0.25630737  0.24521988  1.0
  O  O7058  1  0.04679993  0.42297404  0.24521988  1.0
  O  O7059  1  0.04679993  0.58964070  0.24521988  1.0
  O  O7060  1  0.04679993  0.75630737  0.24521988  1.0
  O  O7061  1  0.04679993  0.92297404  0.24521988  1.0
  O  O7062  1  0.13013327  0.08964070  0.24521988  1.0
  O  O7063  1  0.13013327  0.25630737  0.24521988  1.0
  O  O7064  1  0.13013327  0.42297404  0.24521988  1.0
  O  O7065  1  0.13013327  0.58964070  0.24521988  1.0
  O  O7066  1  0.13013327  0.75630737  0.24521988  1.0
  O  O7067  1  0.13013327  0.92297404  0.24521988  1.0
  O  O7068  1  0.21346660  0.08964070  0.24521988  1.0
  O  O7069  1  0.21346660  0.25630737  0.24521988  1.0
  O  O7070  1  0.21346660  0.42297404  0.24521988  1.0
  O  O7071  1  0.21346660  0.58964070  0.24521988  1.0
  O  O7072  1  0.21346660  0.75630737  0.24521988  1.0
  O  O7073  1  0.21346660  0.92297404  0.24521988  1.0
  O  O7074  1  0.29679993  0.08964070  0.24521988  1.0
  O  O7075  1  0.29679993  0.25630737  0.24521988  1.0
  O  O7076  1  0.29679993  0.42297404  0.24521988  1.0
  O  O7077  1  0.29679993  0.58964070  0.24521988  1.0
  O  O7078  1  0.29679993  0.75630737  0.24521988  1.0
  O  O7079  1  0.29679993  0.92297404  0.24521988  1.0
  O  O7080  1  0.38013327  0.08964070  0.24521988  1.0
  O  O7081  1  0.38013327  0.25630737  0.24521988  1.0
  O  O7082  1  0.38013327  0.42297404  0.24521988  1.0
  O  O7083  1  0.38013327  0.58964070  0.24521988  1.0
  O  O7084  1  0.38013327  0.75630737  0.24521988  1.0
  O  O7085  1  0.38013327  0.92297404  0.24521988  1.0
  O  O7086  1  0.46346660  0.08964070  0.24521988  1.0
  O  O7087  1  0.46346660  0.25630737  0.24521988  1.0
  O  O7088  1  0.46346660  0.42297404  0.24521988  1.0
  O  O7089  1  0.46346660  0.58964070  0.24521988  1.0
  O  O7090  1  0.46346660  0.75630737  0.24521988  1.0
  O  O7091  1  0.46346660  0.92297404  0.24521988  1.0
  O  O7092  1  0.54679993  0.08964070  0.24521988  1.0
  O  O7093  1  0.54679993  0.25630737  0.24521988  1.0
  O  O7094  1  0.54679993  0.42297404  0.24521988  1.0
  O  O7095  1  0.54679993  0.58964070  0.24521988  1.0
  O  O7096  1  0.54679993  0.75630737  0.24521988  1.0
  O  O7097  1  0.54679993  0.92297404  0.24521988  1.0
  O  O7098  1  0.63013327  0.08964070  0.24521988  1.0
  O  O7099  1  0.63013327  0.25630737  0.24521988  1.0
  O  O7100  1  0.63013327  0.42297404  0.24521988  1.0
  O  O7101  1  0.63013327  0.58964070  0.24521988  1.0
  O  O7102  1  0.63013327  0.75630737  0.24521988  1.0
  O  O7103  1  0.63013327  0.92297404  0.24521988  1.0
  O  O7104  1  0.71346660  0.08964070  0.24521988  1.0
  O  O7105  1  0.71346660  0.25630737  0.24521988  1.0
  O  O7106  1  0.71346660  0.42297404  0.24521988  1.0
  O  O7107  1  0.71346660  0.58964070  0.24521988  1.0
  O  O7108  1  0.71346660  0.75630737  0.24521988  1.0
  O  O7109  1  0.71346660  0.92297404  0.24521988  1.0
  O  O7110  1  0.79679993  0.08964070  0.24521988  1.0
  O  O7111  1  0.79679993  0.25630737  0.24521988  1.0
  O  O7112  1  0.79679993  0.42297404  0.24521988  1.0
  O  O7113  1  0.79679993  0.58964070  0.24521988  1.0
  O  O7114  1  0.79679993  0.75630737  0.24521988  1.0
  O  O7115  1  0.79679993  0.92297404  0.24521988  1.0
  O  O7116  1  0.88013327  0.08964070  0.24521988  1.0
  O  O7117  1  0.88013327  0.25630737  0.24521988  1.0
  O  O7118  1  0.88013327  0.42297404  0.24521988  1.0
  O  O7119  1  0.88013327  0.58964070  0.24521988  1.0
  O  O7120  1  0.88013327  0.75630737  0.24521988  1.0
  O  O7121  1  0.88013327  0.92297404  0.24521988  1.0
  O  O7122  1  0.96346660  0.08964070  0.24521988  1.0
  O  O7123  1  0.96346660  0.25630737  0.24521988  1.0
  O  O7124  1  0.96346660  0.42297404  0.24521988  1.0
  O  O7125  1  0.96346660  0.58964070  0.24521988  1.0
  O  O7126  1  0.96346660  0.75630737  0.24521988  1.0
  O  O7127  1  0.96346660  0.92297404  0.24521988  1.0
  O  O7128  1  0.02299041  0.07773594  0.31664845  1.0
  O  O7129  1  0.02299041  0.24440261  0.31664845  1.0
  O  O7130  1  0.02299041  0.41106927  0.31664845  1.0
  O  O7131  1  0.02299041  0.57773594  0.31664845  1.0
  O  O7132  1  0.02299041  0.74440261  0.31664845  1.0
  O  O7133  1  0.02299041  0.91106927  0.31664845  1.0
  O  O7134  1  0.10632374  0.07773594  0.31664845  1.0
  O  O7135  1  0.10632374  0.24440261  0.31664845  1.0
  O  O7136  1  0.10632374  0.41106927  0.31664845  1.0
  O  O7137  1  0.10632374  0.57773594  0.31664845  1.0
  O  O7138  1  0.10632374  0.74440261  0.31664845  1.0
  O  O7139  1  0.10632374  0.91106927  0.31664845  1.0
  O  O7140  1  0.18965708  0.07773594  0.31664845  1.0
  O  O7141  1  0.18965708  0.24440261  0.31664845  1.0
  O  O7142  1  0.18965708  0.41106927  0.31664845  1.0
  O  O7143  1  0.18965708  0.57773594  0.31664845  1.0
  O  O7144  1  0.18965708  0.74440261  0.31664845  1.0
  O  O7145  1  0.18965708  0.91106927  0.31664845  1.0
  O  O7146  1  0.27299041  0.07773594  0.31664845  1.0
  O  O7147  1  0.27299041  0.24440261  0.31664845  1.0
  O  O7148  1  0.27299041  0.41106927  0.31664845  1.0
  O  O7149  1  0.27299041  0.57773594  0.31664845  1.0
  O  O7150  1  0.27299041  0.74440261  0.31664845  1.0
  O  O7151  1  0.27299041  0.91106927  0.31664845  1.0
  O  O7152  1  0.35632374  0.07773594  0.31664845  1.0
  O  O7153  1  0.35632374  0.24440261  0.31664845  1.0
  O  O7154  1  0.35632374  0.41106927  0.31664845  1.0
  O  O7155  1  0.35632374  0.57773594  0.31664845  1.0
  O  O7156  1  0.35632374  0.74440261  0.31664845  1.0
  O  O7157  1  0.35632374  0.91106927  0.31664845  1.0
  O  O7158  1  0.43965708  0.07773594  0.31664845  1.0
  O  O7159  1  0.43965708  0.24440261  0.31664845  1.0
  O  O7160  1  0.43965708  0.41106927  0.31664845  1.0
  O  O7161  1  0.43965708  0.57773594  0.31664845  1.0
  O  O7162  1  0.43965708  0.74440261  0.31664845  1.0
  O  O7163  1  0.43965708  0.91106927  0.31664845  1.0
  O  O7164  1  0.52299041  0.07773594  0.31664845  1.0
  O  O7165  1  0.52299041  0.24440261  0.31664845  1.0
  O  O7166  1  0.52299041  0.41106927  0.31664845  1.0
  O  O7167  1  0.52299041  0.57773594  0.31664845  1.0
  O  O7168  1  0.52299041  0.74440261  0.31664845  1.0
  O  O7169  1  0.52299041  0.91106927  0.31664845  1.0
  O  O7170  1  0.60632374  0.07773594  0.31664845  1.0
  O  O7171  1  0.60632374  0.24440261  0.31664845  1.0
  O  O7172  1  0.60632374  0.41106927  0.31664845  1.0
  O  O7173  1  0.60632374  0.57773594  0.31664845  1.0
  O  O7174  1  0.60632374  0.74440261  0.31664845  1.0
  O  O7175  1  0.60632374  0.91106927  0.31664845  1.0
  O  O7176  1  0.68965708  0.07773594  0.31664845  1.0
  O  O7177  1  0.68965708  0.24440261  0.31664845  1.0
  O  O7178  1  0.68965708  0.41106927  0.31664845  1.0
  O  O7179  1  0.68965708  0.57773594  0.31664845  1.0
  O  O7180  1  0.68965708  0.74440261  0.31664845  1.0
  O  O7181  1  0.68965708  0.91106927  0.31664845  1.0
  O  O7182  1  0.77299041  0.07773594  0.31664845  1.0
  O  O7183  1  0.77299041  0.24440261  0.31664845  1.0
  O  O7184  1  0.77299041  0.41106927  0.31664845  1.0
  O  O7185  1  0.77299041  0.57773594  0.31664845  1.0
  O  O7186  1  0.77299041  0.74440261  0.31664845  1.0
  O  O7187  1  0.77299041  0.91106927  0.31664845  1.0
  O  O7188  1  0.85632374  0.07773594  0.31664845  1.0
  O  O7189  1  0.85632374  0.24440261  0.31664845  1.0
  O  O7190  1  0.85632374  0.41106927  0.31664845  1.0
  O  O7191  1  0.85632374  0.57773594  0.31664845  1.0
  O  O7192  1  0.85632374  0.74440261  0.31664845  1.0
  O  O7193  1  0.85632374  0.91106927  0.31664845  1.0
  O  O7194  1  0.93965708  0.07773594  0.31664845  1.0
  O  O7195  1  0.93965708  0.24440261  0.31664845  1.0
  O  O7196  1  0.93965708  0.41106927  0.31664845  1.0
  O  O7197  1  0.93965708  0.57773594  0.31664845  1.0
  O  O7198  1  0.93965708  0.74440261  0.31664845  1.0
  O  O7199  1  0.93965708  0.91106927  0.31664845  1.0
  O  O7200  1  0.05102811  0.07220266  0.35247010  1.0
  O  O7201  1  0.05102811  0.23886933  0.35247010  1.0
  O  O7202  1  0.05102811  0.40553599  0.35247010  1.0
  O  O7203  1  0.05102811  0.57220266  0.35247010  1.0
  O  O7204  1  0.05102811  0.73886933  0.35247010  1.0
  O  O7205  1  0.05102811  0.90553599  0.35247010  1.0
  O  O7206  1  0.13436144  0.07220266  0.35247010  1.0
  O  O7207  1  0.13436144  0.23886933  0.35247010  1.0
  O  O7208  1  0.13436144  0.40553599  0.35247010  1.0
  O  O7209  1  0.13436144  0.57220266  0.35247010  1.0
  O  O7210  1  0.13436144  0.73886933  0.35247010  1.0
  O  O7211  1  0.13436144  0.90553599  0.35247010  1.0
  O  O7212  1  0.21769477  0.07220266  0.35247010  1.0
  O  O7213  1  0.21769477  0.23886933  0.35247010  1.0
  O  O7214  1  0.21769477  0.40553599  0.35247010  1.0
  O  O7215  1  0.21769477  0.57220266  0.35247010  1.0
  O  O7216  1  0.21769477  0.73886933  0.35247010  1.0
  O  O7217  1  0.21769477  0.90553599  0.35247010  1.0
  O  O7218  1  0.30102811  0.07220266  0.35247010  1.0
  O  O7219  1  0.30102811  0.23886933  0.35247010  1.0
  O  O7220  1  0.30102811  0.40553599  0.35247010  1.0
  O  O7221  1  0.30102811  0.57220266  0.35247010  1.0
  O  O7222  1  0.30102811  0.73886933  0.35247010  1.0
  O  O7223  1  0.30102811  0.90553599  0.35247010  1.0
  O  O7224  1  0.38436144  0.07220266  0.35247010  1.0
  O  O7225  1  0.38436144  0.23886933  0.35247010  1.0
  O  O7226  1  0.38436144  0.40553599  0.35247010  1.0
  O  O7227  1  0.38436144  0.57220266  0.35247010  1.0
  O  O7228  1  0.38436144  0.73886933  0.35247010  1.0
  O  O7229  1  0.38436144  0.90553599  0.35247010  1.0
  O  O7230  1  0.46769477  0.07220266  0.35247010  1.0
  O  O7231  1  0.46769477  0.23886933  0.35247010  1.0
  O  O7232  1  0.46769477  0.40553599  0.35247010  1.0
  O  O7233  1  0.46769477  0.57220266  0.35247010  1.0
  O  O7234  1  0.46769477  0.73886933  0.35247010  1.0
  O  O7235  1  0.46769477  0.90553599  0.35247010  1.0
  O  O7236  1  0.55102811  0.07220266  0.35247010  1.0
  O  O7237  1  0.55102811  0.23886933  0.35247010  1.0
  O  O7238  1  0.55102811  0.40553599  0.35247010  1.0
  O  O7239  1  0.55102811  0.57220266  0.35247010  1.0
  O  O7240  1  0.55102811  0.73886933  0.35247010  1.0
  O  O7241  1  0.55102811  0.90553599  0.35247010  1.0
  O  O7242  1  0.63436144  0.07220266  0.35247010  1.0
  O  O7243  1  0.63436144  0.23886933  0.35247010  1.0
  O  O7244  1  0.63436144  0.40553599  0.35247010  1.0
  O  O7245  1  0.63436144  0.57220266  0.35247010  1.0
  O  O7246  1  0.63436144  0.73886933  0.35247010  1.0
  O  O7247  1  0.63436144  0.90553599  0.35247010  1.0
  O  O7248  1  0.71769477  0.07220266  0.35247010  1.0
  O  O7249  1  0.71769477  0.23886933  0.35247010  1.0
  O  O7250  1  0.71769477  0.40553599  0.35247010  1.0
  O  O7251  1  0.71769477  0.57220266  0.35247010  1.0
  O  O7252  1  0.71769477  0.73886933  0.35247010  1.0
  O  O7253  1  0.71769477  0.90553599  0.35247010  1.0
  O  O7254  1  0.80102811  0.07220266  0.35247010  1.0
  O  O7255  1  0.80102811  0.23886933  0.35247010  1.0
  O  O7256  1  0.80102811  0.40553599  0.35247010  1.0
  O  O7257  1  0.80102811  0.57220266  0.35247010  1.0
  O  O7258  1  0.80102811  0.73886933  0.35247010  1.0
  O  O7259  1  0.80102811  0.90553599  0.35247010  1.0
  O  O7260  1  0.88436144  0.07220266  0.35247010  1.0
  O  O7261  1  0.88436144  0.23886933  0.35247010  1.0
  O  O7262  1  0.88436144  0.40553599  0.35247010  1.0
  O  O7263  1  0.88436144  0.57220266  0.35247010  1.0
  O  O7264  1  0.88436144  0.73886933  0.35247010  1.0
  O  O7265  1  0.88436144  0.90553599  0.35247010  1.0
  O  O7266  1  0.96769477  0.07220266  0.35247010  1.0
  O  O7267  1  0.96769477  0.23886933  0.35247010  1.0
  O  O7268  1  0.96769477  0.40553599  0.35247010  1.0
  O  O7269  1  0.96769477  0.57220266  0.35247010  1.0
  O  O7270  1  0.96769477  0.73886933  0.35247010  1.0
  O  O7271  1  0.96769477  0.90553599  0.35247010  1.0
  O  O7272  1  0.07483763  0.08410742  0.28104152  1.0
  O  O7273  1  0.07483763  0.25077409  0.28104152  1.0
  O  O7274  1  0.07483763  0.41744075  0.28104152  1.0
  O  O7275  1  0.07483763  0.58410742  0.28104152  1.0
  O  O7276  1  0.07483763  0.75077409  0.28104152  1.0
  O  O7277  1  0.07483763  0.91744075  0.28104152  1.0
  O  O7278  1  0.15817097  0.08410742  0.28104152  1.0
  O  O7279  1  0.15817097  0.25077409  0.28104152  1.0
  O  O7280  1  0.15817097  0.41744075  0.28104152  1.0
  O  O7281  1  0.15817097  0.58410742  0.28104152  1.0
  O  O7282  1  0.15817097  0.75077409  0.28104152  1.0
  O  O7283  1  0.15817097  0.91744075  0.28104152  1.0
  O  O7284  1  0.24150430  0.08410742  0.28104152  1.0
  O  O7285  1  0.24150430  0.25077409  0.28104152  1.0
  O  O7286  1  0.24150430  0.41744075  0.28104152  1.0
  O  O7287  1  0.24150430  0.58410742  0.28104152  1.0
  O  O7288  1  0.24150430  0.75077409  0.28104152  1.0
  O  O7289  1  0.24150430  0.91744075  0.28104152  1.0
  O  O7290  1  0.32483763  0.08410742  0.28104152  1.0
  O  O7291  1  0.32483763  0.25077409  0.28104152  1.0
  O  O7292  1  0.32483763  0.41744075  0.28104152  1.0
  O  O7293  1  0.32483763  0.58410742  0.28104152  1.0
  O  O7294  1  0.32483763  0.75077409  0.28104152  1.0
  O  O7295  1  0.32483763  0.91744075  0.28104152  1.0
  O  O7296  1  0.40817097  0.08410742  0.28104152  1.0
  O  O7297  1  0.40817097  0.25077409  0.28104152  1.0
  O  O7298  1  0.40817097  0.41744075  0.28104152  1.0
  O  O7299  1  0.40817097  0.58410742  0.28104152  1.0
  O  O7300  1  0.40817097  0.75077409  0.28104152  1.0
  O  O7301  1  0.40817097  0.91744075  0.28104152  1.0
  O  O7302  1  0.49150430  0.08410742  0.28104152  1.0
  O  O7303  1  0.49150430  0.25077409  0.28104152  1.0
  O  O7304  1  0.49150430  0.41744075  0.28104152  1.0
  O  O7305  1  0.49150430  0.58410742  0.28104152  1.0
  O  O7306  1  0.49150430  0.75077409  0.28104152  1.0
  O  O7307  1  0.49150430  0.91744075  0.28104152  1.0
  O  O7308  1  0.57483763  0.08410742  0.28104152  1.0
  O  O7309  1  0.57483763  0.25077409  0.28104152  1.0
  O  O7310  1  0.57483763  0.41744075  0.28104152  1.0
  O  O7311  1  0.57483763  0.58410742  0.28104152  1.0
  O  O7312  1  0.57483763  0.75077409  0.28104152  1.0
  O  O7313  1  0.57483763  0.91744075  0.28104152  1.0
  O  O7314  1  0.65817097  0.08410742  0.28104152  1.0
  O  O7315  1  0.65817097  0.25077409  0.28104152  1.0
  O  O7316  1  0.65817097  0.41744075  0.28104152  1.0
  O  O7317  1  0.65817097  0.58410742  0.28104152  1.0
  O  O7318  1  0.65817097  0.75077409  0.28104152  1.0
  O  O7319  1  0.65817097  0.91744075  0.28104152  1.0
  O  O7320  1  0.74150430  0.08410742  0.28104152  1.0
  O  O7321  1  0.74150430  0.25077409  0.28104152  1.0
  O  O7322  1  0.74150430  0.41744075  0.28104152  1.0
  O  O7323  1  0.74150430  0.58410742  0.28104152  1.0
  O  O7324  1  0.74150430  0.75077409  0.28104152  1.0
  O  O7325  1  0.74150430  0.91744075  0.28104152  1.0
  O  O7326  1  0.82483763  0.08410742  0.28104152  1.0
  O  O7327  1  0.82483763  0.25077409  0.28104152  1.0
  O  O7328  1  0.82483763  0.41744075  0.28104152  1.0
  O  O7329  1  0.82483763  0.58410742  0.28104152  1.0
  O  O7330  1  0.82483763  0.75077409  0.28104152  1.0
  O  O7331  1  0.82483763  0.91744075  0.28104152  1.0
  O  O7332  1  0.90817097  0.08410742  0.28104152  1.0
  O  O7333  1  0.90817097  0.25077409  0.28104152  1.0
  O  O7334  1  0.90817097  0.41744075  0.28104152  1.0
  O  O7335  1  0.90817097  0.58410742  0.28104152  1.0
  O  O7336  1  0.90817097  0.75077409  0.28104152  1.0
  O  O7337  1  0.90817097  0.91744075  0.28104152  1.0
  O  O7338  1  0.99150430  0.08410742  0.28104152  1.0
  O  O7339  1  0.99150430  0.25077409  0.28104152  1.0
  O  O7340  1  0.99150430  0.41744075  0.28104152  1.0
  O  O7341  1  0.99150430  0.58410742  0.28104152  1.0
  O  O7342  1  0.99150430  0.75077409  0.28104152  1.0
  O  O7343  1  0.99150430  0.91744075  0.28104152  1.0
  O  O7344  1  0.04345011  0.13558181  0.25359724  1.0
  O  O7345  1  0.04345011  0.30224848  0.25359724  1.0
  O  O7346  1  0.04345011  0.46891515  0.25359724  1.0
  O  O7347  1  0.04345011  0.63558181  0.25359724  1.0
  O  O7348  1  0.04345011  0.80224848  0.25359724  1.0
  O  O7349  1  0.04345011  0.96891515  0.25359724  1.0
  O  O7350  1  0.12678344  0.13558181  0.25359724  1.0
  O  O7351  1  0.12678344  0.30224848  0.25359724  1.0
  O  O7352  1  0.12678344  0.46891515  0.25359724  1.0
  O  O7353  1  0.12678344  0.63558181  0.25359724  1.0
  O  O7354  1  0.12678344  0.80224848  0.25359724  1.0
  O  O7355  1  0.12678344  0.96891515  0.25359724  1.0
  O  O7356  1  0.21011677  0.13558181  0.25359724  1.0
  O  O7357  1  0.21011677  0.30224848  0.25359724  1.0
  O  O7358  1  0.21011677  0.46891515  0.25359724  1.0
  O  O7359  1  0.21011677  0.63558181  0.25359724  1.0
  O  O7360  1  0.21011677  0.80224848  0.25359724  1.0
  O  O7361  1  0.21011677  0.96891515  0.25359724  1.0
  O  O7362  1  0.29345011  0.13558181  0.25359724  1.0
  O  O7363  1  0.29345011  0.30224848  0.25359724  1.0
  O  O7364  1  0.29345011  0.46891515  0.25359724  1.0
  O  O7365  1  0.29345011  0.63558181  0.25359724  1.0
  O  O7366  1  0.29345011  0.80224848  0.25359724  1.0
  O  O7367  1  0.29345011  0.96891515  0.25359724  1.0
  O  O7368  1  0.37678344  0.13558181  0.25359724  1.0
  O  O7369  1  0.37678344  0.30224848  0.25359724  1.0
  O  O7370  1  0.37678344  0.46891515  0.25359724  1.0
  O  O7371  1  0.37678344  0.63558181  0.25359724  1.0
  O  O7372  1  0.37678344  0.80224848  0.25359724  1.0
  O  O7373  1  0.37678344  0.96891515  0.25359724  1.0
  O  O7374  1  0.46011677  0.13558181  0.25359724  1.0
  O  O7375  1  0.46011677  0.30224848  0.25359724  1.0
  O  O7376  1  0.46011677  0.46891515  0.25359724  1.0
  O  O7377  1  0.46011677  0.63558181  0.25359724  1.0
  O  O7378  1  0.46011677  0.80224848  0.25359724  1.0
  O  O7379  1  0.46011677  0.96891515  0.25359724  1.0
  O  O7380  1  0.54345011  0.13558181  0.25359724  1.0
  O  O7381  1  0.54345011  0.30224848  0.25359724  1.0
  O  O7382  1  0.54345011  0.46891515  0.25359724  1.0
  O  O7383  1  0.54345011  0.63558181  0.25359724  1.0
  O  O7384  1  0.54345011  0.80224848  0.25359724  1.0
  O  O7385  1  0.54345011  0.96891515  0.25359724  1.0
  O  O7386  1  0.62678344  0.13558181  0.25359724  1.0
  O  O7387  1  0.62678344  0.30224848  0.25359724  1.0
  O  O7388  1  0.62678344  0.46891515  0.25359724  1.0
  O  O7389  1  0.62678344  0.63558181  0.25359724  1.0
  O  O7390  1  0.62678344  0.80224848  0.25359724  1.0
  O  O7391  1  0.62678344  0.96891515  0.25359724  1.0
  O  O7392  1  0.71011677  0.13558181  0.25359724  1.0
  O  O7393  1  0.71011677  0.30224848  0.25359724  1.0
  O  O7394  1  0.71011677  0.46891515  0.25359724  1.0
  O  O7395  1  0.71011677  0.63558181  0.25359724  1.0
  O  O7396  1  0.71011677  0.80224848  0.25359724  1.0
  O  O7397  1  0.71011677  0.96891515  0.25359724  1.0
  O  O7398  1  0.79345011  0.13558181  0.25359724  1.0
  O  O7399  1  0.79345011  0.30224848  0.25359724  1.0
  O  O7400  1  0.79345011  0.46891515  0.25359724  1.0
  O  O7401  1  0.79345011  0.63558181  0.25359724  1.0
  O  O7402  1  0.79345011  0.80224848  0.25359724  1.0
  O  O7403  1  0.79345011  0.96891515  0.25359724  1.0
  O  O7404  1  0.87678344  0.13558181  0.25359724  1.0
  O  O7405  1  0.87678344  0.30224848  0.25359724  1.0
  O  O7406  1  0.87678344  0.46891515  0.25359724  1.0
  O  O7407  1  0.87678344  0.63558181  0.25359724  1.0
  O  O7408  1  0.87678344  0.80224848  0.25359724  1.0
  O  O7409  1  0.87678344  0.96891515  0.25359724  1.0
  O  O7410  1  0.96011677  0.13558181  0.25359724  1.0
  O  O7411  1  0.96011677  0.30224848  0.25359724  1.0
  O  O7412  1  0.96011677  0.46891515  0.25359724  1.0
  O  O7413  1  0.96011677  0.63558181  0.25359724  1.0
  O  O7414  1  0.96011677  0.80224848  0.25359724  1.0
  O  O7415  1  0.96011677  0.96891515  0.25359724  1.0
  O  O7416  1  0.01964058  0.12367705  0.32502581  1.0
  O  O7417  1  0.01964058  0.29034372  0.32502581  1.0
  O  O7418  1  0.01964058  0.45701039  0.32502581  1.0
  O  O7419  1  0.01964058  0.62367705  0.32502581  1.0
  O  O7420  1  0.01964058  0.79034372  0.32502581  1.0
  O  O7421  1  0.01964058  0.95701039  0.32502581  1.0
  O  O7422  1  0.10297391  0.12367705  0.32502581  1.0
  O  O7423  1  0.10297391  0.29034372  0.32502581  1.0
  O  O7424  1  0.10297391  0.45701039  0.32502581  1.0
  O  O7425  1  0.10297391  0.62367705  0.32502581  1.0
  O  O7426  1  0.10297391  0.79034372  0.32502581  1.0
  O  O7427  1  0.10297391  0.95701039  0.32502581  1.0
  O  O7428  1  0.18630725  0.12367705  0.32502581  1.0
  O  O7429  1  0.18630725  0.29034372  0.32502581  1.0
  O  O7430  1  0.18630725  0.45701039  0.32502581  1.0
  O  O7431  1  0.18630725  0.62367705  0.32502581  1.0
  O  O7432  1  0.18630725  0.79034372  0.32502581  1.0
  O  O7433  1  0.18630725  0.95701039  0.32502581  1.0
  O  O7434  1  0.26964058  0.12367705  0.32502581  1.0
  O  O7435  1  0.26964058  0.29034372  0.32502581  1.0
  O  O7436  1  0.26964058  0.45701039  0.32502581  1.0
  O  O7437  1  0.26964058  0.62367705  0.32502581  1.0
  O  O7438  1  0.26964058  0.79034372  0.32502581  1.0
  O  O7439  1  0.26964058  0.95701039  0.32502581  1.0
  O  O7440  1  0.35297391  0.12367705  0.32502581  1.0
  O  O7441  1  0.35297391  0.29034372  0.32502581  1.0
  O  O7442  1  0.35297391  0.45701039  0.32502581  1.0
  O  O7443  1  0.35297391  0.62367705  0.32502581  1.0
  O  O7444  1  0.35297391  0.79034372  0.32502581  1.0
  O  O7445  1  0.35297391  0.95701039  0.32502581  1.0
  O  O7446  1  0.43630725  0.12367705  0.32502581  1.0
  O  O7447  1  0.43630725  0.29034372  0.32502581  1.0
  O  O7448  1  0.43630725  0.45701039  0.32502581  1.0
  O  O7449  1  0.43630725  0.62367705  0.32502581  1.0
  O  O7450  1  0.43630725  0.79034372  0.32502581  1.0
  O  O7451  1  0.43630725  0.95701039  0.32502581  1.0
  O  O7452  1  0.51964058  0.12367705  0.32502581  1.0
  O  O7453  1  0.51964058  0.29034372  0.32502581  1.0
  O  O7454  1  0.51964058  0.45701039  0.32502581  1.0
  O  O7455  1  0.51964058  0.62367705  0.32502581  1.0
  O  O7456  1  0.51964058  0.79034372  0.32502581  1.0
  O  O7457  1  0.51964058  0.95701039  0.32502581  1.0
  O  O7458  1  0.60297391  0.12367705  0.32502581  1.0
  O  O7459  1  0.60297391  0.29034372  0.32502581  1.0
  O  O7460  1  0.60297391  0.45701039  0.32502581  1.0
  O  O7461  1  0.60297391  0.62367705  0.32502581  1.0
  O  O7462  1  0.60297391  0.79034372  0.32502581  1.0
  O  O7463  1  0.60297391  0.95701039  0.32502581  1.0
  O  O7464  1  0.68630725  0.12367705  0.32502581  1.0
  O  O7465  1  0.68630725  0.29034372  0.32502581  1.0
  O  O7466  1  0.68630725  0.45701039  0.32502581  1.0
  O  O7467  1  0.68630725  0.62367705  0.32502581  1.0
  O  O7468  1  0.68630725  0.79034372  0.32502581  1.0
  O  O7469  1  0.68630725  0.95701039  0.32502581  1.0
  O  O7470  1  0.76964058  0.12367705  0.32502581  1.0
  O  O7471  1  0.76964058  0.29034372  0.32502581  1.0
  O  O7472  1  0.76964058  0.45701039  0.32502581  1.0
  O  O7473  1  0.76964058  0.62367705  0.32502581  1.0
  O  O7474  1  0.76964058  0.79034372  0.32502581  1.0
  O  O7475  1  0.76964058  0.95701039  0.32502581  1.0
  O  O7476  1  0.85297391  0.12367705  0.32502581  1.0
  O  O7477  1  0.85297391  0.29034372  0.32502581  1.0
  O  O7478  1  0.85297391  0.45701039  0.32502581  1.0
  O  O7479  1  0.85297391  0.62367705  0.32502581  1.0
  O  O7480  1  0.85297391  0.79034372  0.32502581  1.0
  O  O7481  1  0.85297391  0.95701039  0.32502581  1.0
  O  O7482  1  0.93630725  0.12367705  0.32502581  1.0
  O  O7483  1  0.93630725  0.29034372  0.32502581  1.0
  O  O7484  1  0.93630725  0.45701039  0.32502581  1.0
  O  O7485  1  0.93630725  0.62367705  0.32502581  1.0
  O  O7486  1  0.93630725  0.79034372  0.32502581  1.0
  O  O7487  1  0.93630725  0.95701039  0.32502581  1.0
  O  O7488  1  0.00996968  0.09445280  0.35585659  1.0
  O  O7489  1  0.00996968  0.26111947  0.35585659  1.0
  O  O7490  1  0.00996968  0.42778614  0.35585659  1.0
  O  O7491  1  0.00996968  0.59445280  0.35585659  1.0
  O  O7492  1  0.00996968  0.76111947  0.35585659  1.0
  O  O7493  1  0.00996968  0.92778614  0.35585659  1.0
  O  O7494  1  0.09330302  0.09445280  0.35585659  1.0
  O  O7495  1  0.09330302  0.26111947  0.35585659  1.0
  O  O7496  1  0.09330302  0.42778614  0.35585659  1.0
  O  O7497  1  0.09330302  0.59445280  0.35585659  1.0
  O  O7498  1  0.09330302  0.76111947  0.35585659  1.0
  O  O7499  1  0.09330302  0.92778614  0.35585659  1.0
  O  O7500  1  0.17663635  0.09445280  0.35585659  1.0
  O  O7501  1  0.17663635  0.26111947  0.35585659  1.0
  O  O7502  1  0.17663635  0.42778614  0.35585659  1.0
  O  O7503  1  0.17663635  0.59445280  0.35585659  1.0
  O  O7504  1  0.17663635  0.76111947  0.35585659  1.0
  O  O7505  1  0.17663635  0.92778614  0.35585659  1.0
  O  O7506  1  0.25996968  0.09445280  0.35585659  1.0
  O  O7507  1  0.25996968  0.26111947  0.35585659  1.0
  O  O7508  1  0.25996968  0.42778614  0.35585659  1.0
  O  O7509  1  0.25996968  0.59445280  0.35585659  1.0
  O  O7510  1  0.25996968  0.76111947  0.35585659  1.0
  O  O7511  1  0.25996968  0.92778614  0.35585659  1.0
  O  O7512  1  0.34330302  0.09445280  0.35585659  1.0
  O  O7513  1  0.34330302  0.26111947  0.35585659  1.0
  O  O7514  1  0.34330302  0.42778614  0.35585659  1.0
  O  O7515  1  0.34330302  0.59445280  0.35585659  1.0
  O  O7516  1  0.34330302  0.76111947  0.35585659  1.0
  O  O7517  1  0.34330302  0.92778614  0.35585659  1.0
  O  O7518  1  0.42663635  0.09445280  0.35585659  1.0
  O  O7519  1  0.42663635  0.26111947  0.35585659  1.0
  O  O7520  1  0.42663635  0.42778614  0.35585659  1.0
  O  O7521  1  0.42663635  0.59445280  0.35585659  1.0
  O  O7522  1  0.42663635  0.76111947  0.35585659  1.0
  O  O7523  1  0.42663635  0.92778614  0.35585659  1.0
  O  O7524  1  0.50996968  0.09445280  0.35585659  1.0
  O  O7525  1  0.50996968  0.26111947  0.35585659  1.0
  O  O7526  1  0.50996968  0.42778614  0.35585659  1.0
  O  O7527  1  0.50996968  0.59445280  0.35585659  1.0
  O  O7528  1  0.50996968  0.76111947  0.35585659  1.0
  O  O7529  1  0.50996968  0.92778614  0.35585659  1.0
  O  O7530  1  0.59330302  0.09445280  0.35585659  1.0
  O  O7531  1  0.59330302  0.26111947  0.35585659  1.0
  O  O7532  1  0.59330302  0.42778614  0.35585659  1.0
  O  O7533  1  0.59330302  0.59445280  0.35585659  1.0
  O  O7534  1  0.59330302  0.76111947  0.35585659  1.0
  O  O7535  1  0.59330302  0.92778614  0.35585659  1.0
  O  O7536  1  0.67663635  0.09445280  0.35585659  1.0
  O  O7537  1  0.67663635  0.26111947  0.35585659  1.0
  O  O7538  1  0.67663635  0.42778614  0.35585659  1.0
  O  O7539  1  0.67663635  0.59445280  0.35585659  1.0
  O  O7540  1  0.67663635  0.76111947  0.35585659  1.0
  O  O7541  1  0.67663635  0.92778614  0.35585659  1.0
  O  O7542  1  0.75996968  0.09445280  0.35585659  1.0
  O  O7543  1  0.75996968  0.26111947  0.35585659  1.0
  O  O7544  1  0.75996968  0.42778614  0.35585659  1.0
  O  O7545  1  0.75996968  0.59445280  0.35585659  1.0
  O  O7546  1  0.75996968  0.76111947  0.35585659  1.0
  O  O7547  1  0.75996968  0.92778614  0.35585659  1.0
  O  O7548  1  0.84330302  0.09445280  0.35585659  1.0
  O  O7549  1  0.84330302  0.26111947  0.35585659  1.0
  O  O7550  1  0.84330302  0.42778614  0.35585659  1.0
  O  O7551  1  0.84330302  0.59445280  0.35585659  1.0
  O  O7552  1  0.84330302  0.76111947  0.35585659  1.0
  O  O7553  1  0.84330302  0.92778614  0.35585659  1.0
  O  O7554  1  0.92663635  0.09445280  0.35585659  1.0
  O  O7555  1  0.92663635  0.26111947  0.35585659  1.0
  O  O7556  1  0.92663635  0.42778614  0.35585659  1.0
  O  O7557  1  0.92663635  0.59445280  0.35585659  1.0
  O  O7558  1  0.92663635  0.76111947  0.35585659  1.0
  O  O7559  1  0.92663635  0.92778614  0.35585659  1.0
  O  O7560  1  0.03377921  0.10635756  0.28442801  1.0
  O  O7561  1  0.03377921  0.27302423  0.28442801  1.0
  O  O7562  1  0.03377921  0.43969090  0.28442801  1.0
  O  O7563  1  0.03377921  0.60635756  0.28442801  1.0
  O  O7564  1  0.03377921  0.77302423  0.28442801  1.0
  O  O7565  1  0.03377921  0.93969090  0.28442801  1.0
  O  O7566  1  0.11711254  0.10635756  0.28442801  1.0
  O  O7567  1  0.11711254  0.27302423  0.28442801  1.0
  O  O7568  1  0.11711254  0.43969090  0.28442801  1.0
  O  O7569  1  0.11711254  0.60635756  0.28442801  1.0
  O  O7570  1  0.11711254  0.77302423  0.28442801  1.0
  O  O7571  1  0.11711254  0.93969090  0.28442801  1.0
  O  O7572  1  0.20044587  0.10635756  0.28442801  1.0
  O  O7573  1  0.20044587  0.27302423  0.28442801  1.0
  O  O7574  1  0.20044587  0.43969090  0.28442801  1.0
  O  O7575  1  0.20044587  0.60635756  0.28442801  1.0
  O  O7576  1  0.20044587  0.77302423  0.28442801  1.0
  O  O7577  1  0.20044587  0.93969090  0.28442801  1.0
  O  O7578  1  0.28377921  0.10635756  0.28442801  1.0
  O  O7579  1  0.28377921  0.27302423  0.28442801  1.0
  O  O7580  1  0.28377921  0.43969090  0.28442801  1.0
  O  O7581  1  0.28377921  0.60635756  0.28442801  1.0
  O  O7582  1  0.28377921  0.77302423  0.28442801  1.0
  O  O7583  1  0.28377921  0.93969090  0.28442801  1.0
  O  O7584  1  0.36711254  0.10635756  0.28442801  1.0
  O  O7585  1  0.36711254  0.27302423  0.28442801  1.0
  O  O7586  1  0.36711254  0.43969090  0.28442801  1.0
  O  O7587  1  0.36711254  0.60635756  0.28442801  1.0
  O  O7588  1  0.36711254  0.77302423  0.28442801  1.0
  O  O7589  1  0.36711254  0.93969090  0.28442801  1.0
  O  O7590  1  0.45044587  0.10635756  0.28442801  1.0
  O  O7591  1  0.45044587  0.27302423  0.28442801  1.0
  O  O7592  1  0.45044587  0.43969090  0.28442801  1.0
  O  O7593  1  0.45044587  0.60635756  0.28442801  1.0
  O  O7594  1  0.45044587  0.77302423  0.28442801  1.0
  O  O7595  1  0.45044587  0.93969090  0.28442801  1.0
  O  O7596  1  0.53377921  0.10635756  0.28442801  1.0
  O  O7597  1  0.53377921  0.27302423  0.28442801  1.0
  O  O7598  1  0.53377921  0.43969090  0.28442801  1.0
  O  O7599  1  0.53377921  0.60635756  0.28442801  1.0
  O  O7600  1  0.53377921  0.77302423  0.28442801  1.0
  O  O7601  1  0.53377921  0.93969090  0.28442801  1.0
  O  O7602  1  0.61711254  0.10635756  0.28442801  1.0
  O  O7603  1  0.61711254  0.27302423  0.28442801  1.0
  O  O7604  1  0.61711254  0.43969090  0.28442801  1.0
  O  O7605  1  0.61711254  0.60635756  0.28442801  1.0
  O  O7606  1  0.61711254  0.77302423  0.28442801  1.0
  O  O7607  1  0.61711254  0.93969090  0.28442801  1.0
  O  O7608  1  0.70044587  0.10635756  0.28442801  1.0
  O  O7609  1  0.70044587  0.27302423  0.28442801  1.0
  O  O7610  1  0.70044587  0.43969090  0.28442801  1.0
  O  O7611  1  0.70044587  0.60635756  0.28442801  1.0
  O  O7612  1  0.70044587  0.77302423  0.28442801  1.0
  O  O7613  1  0.70044587  0.93969090  0.28442801  1.0
  O  O7614  1  0.78377921  0.10635756  0.28442801  1.0
  O  O7615  1  0.78377921  0.27302423  0.28442801  1.0
  O  O7616  1  0.78377921  0.43969090  0.28442801  1.0
  O  O7617  1  0.78377921  0.60635756  0.28442801  1.0
  O  O7618  1  0.78377921  0.77302423  0.28442801  1.0
  O  O7619  1  0.78377921  0.93969090  0.28442801  1.0
  O  O7620  1  0.86711254  0.10635756  0.28442801  1.0
  O  O7621  1  0.86711254  0.27302423  0.28442801  1.0
  O  O7622  1  0.86711254  0.43969090  0.28442801  1.0
  O  O7623  1  0.86711254  0.60635756  0.28442801  1.0
  O  O7624  1  0.86711254  0.77302423  0.28442801  1.0
  O  O7625  1  0.86711254  0.93969090  0.28442801  1.0
  O  O7626  1  0.95044587  0.10635756  0.28442801  1.0
  O  O7627  1  0.95044587  0.27302423  0.28442801  1.0
  O  O7628  1  0.95044587  0.43969090  0.28442801  1.0
  O  O7629  1  0.95044587  0.60635756  0.28442801  1.0
  O  O7630  1  0.95044587  0.77302423  0.28442801  1.0
  O  O7631  1  0.95044587  0.93969090  0.28442801  1.0
  O  O7632  1  0.03324436  0.01402604  0.41294949  1.0
  O  O7633  1  0.03324436  0.18069271  0.41294949  1.0
  O  O7634  1  0.03324436  0.34735938  0.41294949  1.0
  O  O7635  1  0.03324436  0.51402604  0.41294949  1.0
  O  O7636  1  0.03324436  0.68069271  0.41294949  1.0
  O  O7637  1  0.03324436  0.84735938  0.41294949  1.0
  O  O7638  1  0.11657769  0.01402604  0.41294949  1.0
  O  O7639  1  0.11657769  0.18069271  0.41294949  1.0
  O  O7640  1  0.11657769  0.34735938  0.41294949  1.0
  O  O7641  1  0.11657769  0.51402604  0.41294949  1.0
  O  O7642  1  0.11657769  0.68069271  0.41294949  1.0
  O  O7643  1  0.11657769  0.84735938  0.41294949  1.0
  O  O7644  1  0.19991102  0.01402604  0.41294949  1.0
  O  O7645  1  0.19991102  0.18069271  0.41294949  1.0
  O  O7646  1  0.19991102  0.34735938  0.41294949  1.0
  O  O7647  1  0.19991102  0.51402604  0.41294949  1.0
  O  O7648  1  0.19991102  0.68069271  0.41294949  1.0
  O  O7649  1  0.19991102  0.84735938  0.41294949  1.0
  O  O7650  1  0.28324436  0.01402604  0.41294949  1.0
  O  O7651  1  0.28324436  0.18069271  0.41294949  1.0
  O  O7652  1  0.28324436  0.34735938  0.41294949  1.0
  O  O7653  1  0.28324436  0.51402604  0.41294949  1.0
  O  O7654  1  0.28324436  0.68069271  0.41294949  1.0
  O  O7655  1  0.28324436  0.84735938  0.41294949  1.0
  O  O7656  1  0.36657769  0.01402604  0.41294949  1.0
  O  O7657  1  0.36657769  0.18069271  0.41294949  1.0
  O  O7658  1  0.36657769  0.34735938  0.41294949  1.0
  O  O7659  1  0.36657769  0.51402604  0.41294949  1.0
  O  O7660  1  0.36657769  0.68069271  0.41294949  1.0
  O  O7661  1  0.36657769  0.84735938  0.41294949  1.0
  O  O7662  1  0.44991102  0.01402604  0.41294949  1.0
  O  O7663  1  0.44991102  0.18069271  0.41294949  1.0
  O  O7664  1  0.44991102  0.34735938  0.41294949  1.0
  O  O7665  1  0.44991102  0.51402604  0.41294949  1.0
  O  O7666  1  0.44991102  0.68069271  0.41294949  1.0
  O  O7667  1  0.44991102  0.84735938  0.41294949  1.0
  O  O7668  1  0.53324436  0.01402604  0.41294949  1.0
  O  O7669  1  0.53324436  0.18069271  0.41294949  1.0
  O  O7670  1  0.53324436  0.34735938  0.41294949  1.0
  O  O7671  1  0.53324436  0.51402604  0.41294949  1.0
  O  O7672  1  0.53324436  0.68069271  0.41294949  1.0
  O  O7673  1  0.53324436  0.84735938  0.41294949  1.0
  O  O7674  1  0.61657769  0.01402604  0.41294949  1.0
  O  O7675  1  0.61657769  0.18069271  0.41294949  1.0
  O  O7676  1  0.61657769  0.34735938  0.41294949  1.0
  O  O7677  1  0.61657769  0.51402604  0.41294949  1.0
  O  O7678  1  0.61657769  0.68069271  0.41294949  1.0
  O  O7679  1  0.61657769  0.84735938  0.41294949  1.0
  O  O7680  1  0.69991102  0.01402604  0.41294949  1.0
  O  O7681  1  0.69991102  0.18069271  0.41294949  1.0
  O  O7682  1  0.69991102  0.34735938  0.41294949  1.0
  O  O7683  1  0.69991102  0.51402604  0.41294949  1.0
  O  O7684  1  0.69991102  0.68069271  0.41294949  1.0
  O  O7685  1  0.69991102  0.84735938  0.41294949  1.0
  O  O7686  1  0.78324436  0.01402604  0.41294949  1.0
  O  O7687  1  0.78324436  0.18069271  0.41294949  1.0
  O  O7688  1  0.78324436  0.34735938  0.41294949  1.0
  O  O7689  1  0.78324436  0.51402604  0.41294949  1.0
  O  O7690  1  0.78324436  0.68069271  0.41294949  1.0
  O  O7691  1  0.78324436  0.84735938  0.41294949  1.0
  O  O7692  1  0.86657769  0.01402604  0.41294949  1.0
  O  O7693  1  0.86657769  0.18069271  0.41294949  1.0
  O  O7694  1  0.86657769  0.34735938  0.41294949  1.0
  O  O7695  1  0.86657769  0.51402604  0.41294949  1.0
  O  O7696  1  0.86657769  0.68069271  0.41294949  1.0
  O  O7697  1  0.86657769  0.84735938  0.41294949  1.0
  O  O7698  1  0.94991102  0.01402604  0.41294949  1.0
  O  O7699  1  0.94991102  0.18069271  0.41294949  1.0
  O  O7700  1  0.94991102  0.34735938  0.41294949  1.0
  O  O7701  1  0.94991102  0.51402604  0.41294949  1.0
  O  O7702  1  0.94991102  0.68069271  0.41294949  1.0
  O  O7703  1  0.94991102  0.84735938  0.41294949  1.0
  O  O7704  1  0.00943483  0.00212128  0.48437806  1.0
  O  O7705  1  0.00943483  0.16878795  0.48437806  1.0
  O  O7706  1  0.00943483  0.33545461  0.48437806  1.0
  O  O7707  1  0.00943483  0.50212128  0.48437806  1.0
  O  O7708  1  0.00943483  0.66878795  0.48437806  1.0
  O  O7709  1  0.00943483  0.83545461  0.48437806  1.0
  O  O7710  1  0.09276817  0.00212128  0.48437806  1.0
  O  O7711  1  0.09276817  0.16878795  0.48437806  1.0
  O  O7712  1  0.09276817  0.33545461  0.48437806  1.0
  O  O7713  1  0.09276817  0.50212128  0.48437806  1.0
  O  O7714  1  0.09276817  0.66878795  0.48437806  1.0
  O  O7715  1  0.09276817  0.83545461  0.48437806  1.0
  O  O7716  1  0.17610150  0.00212128  0.48437806  1.0
  O  O7717  1  0.17610150  0.16878795  0.48437806  1.0
  O  O7718  1  0.17610150  0.33545461  0.48437806  1.0
  O  O7719  1  0.17610150  0.50212128  0.48437806  1.0
  O  O7720  1  0.17610150  0.66878795  0.48437806  1.0
  O  O7721  1  0.17610150  0.83545461  0.48437806  1.0
  O  O7722  1  0.25943483  0.00212128  0.48437806  1.0
  O  O7723  1  0.25943483  0.16878795  0.48437806  1.0
  O  O7724  1  0.25943483  0.33545461  0.48437806  1.0
  O  O7725  1  0.25943483  0.50212128  0.48437806  1.0
  O  O7726  1  0.25943483  0.66878795  0.48437806  1.0
  O  O7727  1  0.25943483  0.83545461  0.48437806  1.0
  O  O7728  1  0.34276817  0.00212128  0.48437806  1.0
  O  O7729  1  0.34276817  0.16878795  0.48437806  1.0
  O  O7730  1  0.34276817  0.33545461  0.48437806  1.0
  O  O7731  1  0.34276817  0.50212128  0.48437806  1.0
  O  O7732  1  0.34276817  0.66878795  0.48437806  1.0
  O  O7733  1  0.34276817  0.83545461  0.48437806  1.0
  O  O7734  1  0.42610150  0.00212128  0.48437806  1.0
  O  O7735  1  0.42610150  0.16878795  0.48437806  1.0
  O  O7736  1  0.42610150  0.33545461  0.48437806  1.0
  O  O7737  1  0.42610150  0.50212128  0.48437806  1.0
  O  O7738  1  0.42610150  0.66878795  0.48437806  1.0
  O  O7739  1  0.42610150  0.83545461  0.48437806  1.0
  O  O7740  1  0.50943483  0.00212128  0.48437806  1.0
  O  O7741  1  0.50943483  0.16878795  0.48437806  1.0
  O  O7742  1  0.50943483  0.33545461  0.48437806  1.0
  O  O7743  1  0.50943483  0.50212128  0.48437806  1.0
  O  O7744  1  0.50943483  0.66878795  0.48437806  1.0
  O  O7745  1  0.50943483  0.83545461  0.48437806  1.0
  O  O7746  1  0.59276817  0.00212128  0.48437806  1.0
  O  O7747  1  0.59276817  0.16878795  0.48437806  1.0
  O  O7748  1  0.59276817  0.33545461  0.48437806  1.0
  O  O7749  1  0.59276817  0.50212128  0.48437806  1.0
  O  O7750  1  0.59276817  0.66878795  0.48437806  1.0
  O  O7751  1  0.59276817  0.83545461  0.48437806  1.0
  O  O7752  1  0.67610150  0.00212128  0.48437806  1.0
  O  O7753  1  0.67610150  0.16878795  0.48437806  1.0
  O  O7754  1  0.67610150  0.33545461  0.48437806  1.0
  O  O7755  1  0.67610150  0.50212128  0.48437806  1.0
  O  O7756  1  0.67610150  0.66878795  0.48437806  1.0
  O  O7757  1  0.67610150  0.83545461  0.48437806  1.0
  O  O7758  1  0.75943483  0.00212128  0.48437806  1.0
  O  O7759  1  0.75943483  0.16878795  0.48437806  1.0
  O  O7760  1  0.75943483  0.33545461  0.48437806  1.0
  O  O7761  1  0.75943483  0.50212128  0.48437806  1.0
  O  O7762  1  0.75943483  0.66878795  0.48437806  1.0
  O  O7763  1  0.75943483  0.83545461  0.48437806  1.0
  O  O7764  1  0.84276817  0.00212128  0.48437806  1.0
  O  O7765  1  0.84276817  0.16878795  0.48437806  1.0
  O  O7766  1  0.84276817  0.33545461  0.48437806  1.0
  O  O7767  1  0.84276817  0.50212128  0.48437806  1.0
  O  O7768  1  0.84276817  0.66878795  0.48437806  1.0
  O  O7769  1  0.84276817  0.83545461  0.48437806  1.0
  O  O7770  1  0.92610150  0.00212128  0.48437806  1.0
  O  O7771  1  0.92610150  0.16878795  0.48437806  1.0
  O  O7772  1  0.92610150  0.33545461  0.48437806  1.0
  O  O7773  1  0.92610150  0.50212128  0.48437806  1.0
  O  O7774  1  0.92610150  0.66878795  0.48437806  1.0
  O  O7775  1  0.92610150  0.83545461  0.48437806  1.0
  O  O7776  1  0.03754359  0.13587040  0.40220282  1.0
  O  O7777  1  0.03754359  0.30253707  0.40220282  1.0
  O  O7778  1  0.03754359  0.46920373  0.40220282  1.0
  O  O7779  1  0.03754359  0.63587040  0.40220282  1.0
  O  O7780  1  0.03754359  0.80253707  0.40220282  1.0
  O  O7781  1  0.03754359  0.96920373  0.40220282  1.0
  O  O7782  1  0.12087692  0.13587040  0.40220282  1.0
  O  O7783  1  0.12087692  0.30253707  0.40220282  1.0
  O  O7784  1  0.12087692  0.46920373  0.40220282  1.0
  O  O7785  1  0.12087692  0.63587040  0.40220282  1.0
  O  O7786  1  0.12087692  0.80253707  0.40220282  1.0
  O  O7787  1  0.12087692  0.96920373  0.40220282  1.0
  O  O7788  1  0.20421025  0.13587040  0.40220282  1.0
  O  O7789  1  0.20421025  0.30253707  0.40220282  1.0
  O  O7790  1  0.20421025  0.46920373  0.40220282  1.0
  O  O7791  1  0.20421025  0.63587040  0.40220282  1.0
  O  O7792  1  0.20421025  0.80253707  0.40220282  1.0
  O  O7793  1  0.20421025  0.96920373  0.40220282  1.0
  O  O7794  1  0.28754359  0.13587040  0.40220282  1.0
  O  O7795  1  0.28754359  0.30253707  0.40220282  1.0
  O  O7796  1  0.28754359  0.46920373  0.40220282  1.0
  O  O7797  1  0.28754359  0.63587040  0.40220282  1.0
  O  O7798  1  0.28754359  0.80253707  0.40220282  1.0
  O  O7799  1  0.28754359  0.96920373  0.40220282  1.0
  O  O7800  1  0.37087692  0.13587040  0.40220282  1.0
  O  O7801  1  0.37087692  0.30253707  0.40220282  1.0
  O  O7802  1  0.37087692  0.46920373  0.40220282  1.0
  O  O7803  1  0.37087692  0.63587040  0.40220282  1.0
  O  O7804  1  0.37087692  0.80253707  0.40220282  1.0
  O  O7805  1  0.37087692  0.96920373  0.40220282  1.0
  O  O7806  1  0.45421025  0.13587040  0.40220282  1.0
  O  O7807  1  0.45421025  0.30253707  0.40220282  1.0
  O  O7808  1  0.45421025  0.46920373  0.40220282  1.0
  O  O7809  1  0.45421025  0.63587040  0.40220282  1.0
  O  O7810  1  0.45421025  0.80253707  0.40220282  1.0
  O  O7811  1  0.45421025  0.96920373  0.40220282  1.0
  O  O7812  1  0.53754359  0.13587040  0.40220282  1.0
  O  O7813  1  0.53754359  0.30253707  0.40220282  1.0
  O  O7814  1  0.53754359  0.46920373  0.40220282  1.0
  O  O7815  1  0.53754359  0.63587040  0.40220282  1.0
  O  O7816  1  0.53754359  0.80253707  0.40220282  1.0
  O  O7817  1  0.53754359  0.96920373  0.40220282  1.0
  O  O7818  1  0.62087692  0.13587040  0.40220282  1.0
  O  O7819  1  0.62087692  0.30253707  0.40220282  1.0
  O  O7820  1  0.62087692  0.46920373  0.40220282  1.0
  O  O7821  1  0.62087692  0.63587040  0.40220282  1.0
  O  O7822  1  0.62087692  0.80253707  0.40220282  1.0
  O  O7823  1  0.62087692  0.96920373  0.40220282  1.0
  O  O7824  1  0.70421025  0.13587040  0.40220282  1.0
  O  O7825  1  0.70421025  0.30253707  0.40220282  1.0
  O  O7826  1  0.70421025  0.46920373  0.40220282  1.0
  O  O7827  1  0.70421025  0.63587040  0.40220282  1.0
  O  O7828  1  0.70421025  0.80253707  0.40220282  1.0
  O  O7829  1  0.70421025  0.96920373  0.40220282  1.0
  O  O7830  1  0.78754359  0.13587040  0.40220282  1.0
  O  O7831  1  0.78754359  0.30253707  0.40220282  1.0
  O  O7832  1  0.78754359  0.46920373  0.40220282  1.0
  O  O7833  1  0.78754359  0.63587040  0.40220282  1.0
  O  O7834  1  0.78754359  0.80253707  0.40220282  1.0
  O  O7835  1  0.78754359  0.96920373  0.40220282  1.0
  O  O7836  1  0.87087692  0.13587040  0.40220282  1.0
  O  O7837  1  0.87087692  0.30253707  0.40220282  1.0
  O  O7838  1  0.87087692  0.46920373  0.40220282  1.0
  O  O7839  1  0.87087692  0.63587040  0.40220282  1.0
  O  O7840  1  0.87087692  0.80253707  0.40220282  1.0
  O  O7841  1  0.87087692  0.96920373  0.40220282  1.0
  O  O7842  1  0.95421025  0.13587040  0.40220282  1.0
  O  O7843  1  0.95421025  0.30253707  0.40220282  1.0
  O  O7844  1  0.95421025  0.46920373  0.40220282  1.0
  O  O7845  1  0.95421025  0.63587040  0.40220282  1.0
  O  O7846  1  0.95421025  0.80253707  0.40220282  1.0
  O  O7847  1  0.95421025  0.96920373  0.40220282  1.0
  O  O7848  1  0.01373406  0.12396564  0.47363139  1.0
  O  O7849  1  0.01373406  0.29063231  0.47363139  1.0
  O  O7850  1  0.01373406  0.45729897  0.47363139  1.0
  O  O7851  1  0.01373406  0.62396564  0.47363139  1.0
  O  O7852  1  0.01373406  0.79063231  0.47363139  1.0
  O  O7853  1  0.01373406  0.95729897  0.47363139  1.0
  O  O7854  1  0.09706739  0.12396564  0.47363139  1.0
  O  O7855  1  0.09706739  0.29063231  0.47363139  1.0
  O  O7856  1  0.09706739  0.45729897  0.47363139  1.0
  O  O7857  1  0.09706739  0.62396564  0.47363139  1.0
  O  O7858  1  0.09706739  0.79063231  0.47363139  1.0
  O  O7859  1  0.09706739  0.95729897  0.47363139  1.0
  O  O7860  1  0.18040073  0.12396564  0.47363139  1.0
  O  O7861  1  0.18040073  0.29063231  0.47363139  1.0
  O  O7862  1  0.18040073  0.45729897  0.47363139  1.0
  O  O7863  1  0.18040073  0.62396564  0.47363139  1.0
  O  O7864  1  0.18040073  0.79063231  0.47363139  1.0
  O  O7865  1  0.18040073  0.95729897  0.47363139  1.0
  O  O7866  1  0.26373406  0.12396564  0.47363139  1.0
  O  O7867  1  0.26373406  0.29063231  0.47363139  1.0
  O  O7868  1  0.26373406  0.45729897  0.47363139  1.0
  O  O7869  1  0.26373406  0.62396564  0.47363139  1.0
  O  O7870  1  0.26373406  0.79063231  0.47363139  1.0
  O  O7871  1  0.26373406  0.95729897  0.47363139  1.0
  O  O7872  1  0.34706739  0.12396564  0.47363139  1.0
  O  O7873  1  0.34706739  0.29063231  0.47363139  1.0
  O  O7874  1  0.34706739  0.45729897  0.47363139  1.0
  O  O7875  1  0.34706739  0.62396564  0.47363139  1.0
  O  O7876  1  0.34706739  0.79063231  0.47363139  1.0
  O  O7877  1  0.34706739  0.95729897  0.47363139  1.0
  O  O7878  1  0.43040073  0.12396564  0.47363139  1.0
  O  O7879  1  0.43040073  0.29063231  0.47363139  1.0
  O  O7880  1  0.43040073  0.45729897  0.47363139  1.0
  O  O7881  1  0.43040073  0.62396564  0.47363139  1.0
  O  O7882  1  0.43040073  0.79063231  0.47363139  1.0
  O  O7883  1  0.43040073  0.95729897  0.47363139  1.0
  O  O7884  1  0.51373406  0.12396564  0.47363139  1.0
  O  O7885  1  0.51373406  0.29063231  0.47363139  1.0
  O  O7886  1  0.51373406  0.45729897  0.47363139  1.0
  O  O7887  1  0.51373406  0.62396564  0.47363139  1.0
  O  O7888  1  0.51373406  0.79063231  0.47363139  1.0
  O  O7889  1  0.51373406  0.95729897  0.47363139  1.0
  O  O7890  1  0.59706739  0.12396564  0.47363139  1.0
  O  O7891  1  0.59706739  0.29063231  0.47363139  1.0
  O  O7892  1  0.59706739  0.45729897  0.47363139  1.0
  O  O7893  1  0.59706739  0.62396564  0.47363139  1.0
  O  O7894  1  0.59706739  0.79063231  0.47363139  1.0
  O  O7895  1  0.59706739  0.95729897  0.47363139  1.0
  O  O7896  1  0.68040073  0.12396564  0.47363139  1.0
  O  O7897  1  0.68040073  0.29063231  0.47363139  1.0
  O  O7898  1  0.68040073  0.45729897  0.47363139  1.0
  O  O7899  1  0.68040073  0.62396564  0.47363139  1.0
  O  O7900  1  0.68040073  0.79063231  0.47363139  1.0
  O  O7901  1  0.68040073  0.95729897  0.47363139  1.0
  O  O7902  1  0.76373406  0.12396564  0.47363139  1.0
  O  O7903  1  0.76373406  0.29063231  0.47363139  1.0
  O  O7904  1  0.76373406  0.45729897  0.47363139  1.0
  O  O7905  1  0.76373406  0.62396564  0.47363139  1.0
  O  O7906  1  0.76373406  0.79063231  0.47363139  1.0
  O  O7907  1  0.76373406  0.95729897  0.47363139  1.0
  O  O7908  1  0.84706739  0.12396564  0.47363139  1.0
  O  O7909  1  0.84706739  0.29063231  0.47363139  1.0
  O  O7910  1  0.84706739  0.45729897  0.47363139  1.0
  O  O7911  1  0.84706739  0.62396564  0.47363139  1.0
  O  O7912  1  0.84706739  0.79063231  0.47363139  1.0
  O  O7913  1  0.84706739  0.95729897  0.47363139  1.0
  O  O7914  1  0.93040073  0.12396564  0.47363139  1.0
  O  O7915  1  0.93040073  0.29063231  0.47363139  1.0
  O  O7916  1  0.93040073  0.45729897  0.47363139  1.0
  O  O7917  1  0.93040073  0.62396564  0.47363139  1.0
  O  O7918  1  0.93040073  0.79063231  0.47363139  1.0
  O  O7919  1  0.93040073  0.95729897  0.47363139  1.0
  O  O7920  1  0.07374891  0.03664895  0.41790928  1.0
  O  O7921  1  0.07374891  0.20331562  0.41790928  1.0
  O  O7922  1  0.07374891  0.36998228  0.41790928  1.0
  O  O7923  1  0.07374891  0.53664895  0.41790928  1.0
  O  O7924  1  0.07374891  0.70331562  0.41790928  1.0
  O  O7925  1  0.07374891  0.86998228  0.41790928  1.0
  O  O7926  1  0.15708225  0.03664895  0.41790928  1.0
  O  O7927  1  0.15708225  0.20331562  0.41790928  1.0
  O  O7928  1  0.15708225  0.36998228  0.41790928  1.0
  O  O7929  1  0.15708225  0.53664895  0.41790928  1.0
  O  O7930  1  0.15708225  0.70331562  0.41790928  1.0
  O  O7931  1  0.15708225  0.86998228  0.41790928  1.0
  O  O7932  1  0.24041558  0.03664895  0.41790928  1.0
  O  O7933  1  0.24041558  0.20331562  0.41790928  1.0
  O  O7934  1  0.24041558  0.36998228  0.41790928  1.0
  O  O7935  1  0.24041558  0.53664895  0.41790928  1.0
  O  O7936  1  0.24041558  0.70331562  0.41790928  1.0
  O  O7937  1  0.24041558  0.86998228  0.41790928  1.0
  O  O7938  1  0.32374891  0.03664895  0.41790928  1.0
  O  O7939  1  0.32374891  0.20331562  0.41790928  1.0
  O  O7940  1  0.32374891  0.36998228  0.41790928  1.0
  O  O7941  1  0.32374891  0.53664895  0.41790928  1.0
  O  O7942  1  0.32374891  0.70331562  0.41790928  1.0
  O  O7943  1  0.32374891  0.86998228  0.41790928  1.0
  O  O7944  1  0.40708225  0.03664895  0.41790928  1.0
  O  O7945  1  0.40708225  0.20331562  0.41790928  1.0
  O  O7946  1  0.40708225  0.36998228  0.41790928  1.0
  O  O7947  1  0.40708225  0.53664895  0.41790928  1.0
  O  O7948  1  0.40708225  0.70331562  0.41790928  1.0
  O  O7949  1  0.40708225  0.86998228  0.41790928  1.0
  O  O7950  1  0.49041558  0.03664895  0.41790928  1.0
  O  O7951  1  0.49041558  0.20331562  0.41790928  1.0
  O  O7952  1  0.49041558  0.36998228  0.41790928  1.0
  O  O7953  1  0.49041558  0.53664895  0.41790928  1.0
  O  O7954  1  0.49041558  0.70331562  0.41790928  1.0
  O  O7955  1  0.49041558  0.86998228  0.41790928  1.0
  O  O7956  1  0.57374891  0.03664895  0.41790928  1.0
  O  O7957  1  0.57374891  0.20331562  0.41790928  1.0
  O  O7958  1  0.57374891  0.36998228  0.41790928  1.0
  O  O7959  1  0.57374891  0.53664895  0.41790928  1.0
  O  O7960  1  0.57374891  0.70331562  0.41790928  1.0
  O  O7961  1  0.57374891  0.86998228  0.41790928  1.0
  O  O7962  1  0.65708225  0.03664895  0.41790928  1.0
  O  O7963  1  0.65708225  0.20331562  0.41790928  1.0
  O  O7964  1  0.65708225  0.36998228  0.41790928  1.0
  O  O7965  1  0.65708225  0.53664895  0.41790928  1.0
  O  O7966  1  0.65708225  0.70331562  0.41790928  1.0
  O  O7967  1  0.65708225  0.86998228  0.41790928  1.0
  O  O7968  1  0.74041558  0.03664895  0.41790928  1.0
  O  O7969  1  0.74041558  0.20331562  0.41790928  1.0
  O  O7970  1  0.74041558  0.36998228  0.41790928  1.0
  O  O7971  1  0.74041558  0.53664895  0.41790928  1.0
  O  O7972  1  0.74041558  0.70331562  0.41790928  1.0
  O  O7973  1  0.74041558  0.86998228  0.41790928  1.0
  O  O7974  1  0.82374891  0.03664895  0.41790928  1.0
  O  O7975  1  0.82374891  0.20331562  0.41790928  1.0
  O  O7976  1  0.82374891  0.36998228  0.41790928  1.0
  O  O7977  1  0.82374891  0.53664895  0.41790928  1.0
  O  O7978  1  0.82374891  0.70331562  0.41790928  1.0
  O  O7979  1  0.82374891  0.86998228  0.41790928  1.0
  O  O7980  1  0.90708225  0.03664895  0.41790928  1.0
  O  O7981  1  0.90708225  0.20331562  0.41790928  1.0
  O  O7982  1  0.90708225  0.36998228  0.41790928  1.0
  O  O7983  1  0.90708225  0.53664895  0.41790928  1.0
  O  O7984  1  0.90708225  0.70331562  0.41790928  1.0
  O  O7985  1  0.90708225  0.86998228  0.41790928  1.0
  O  O7986  1  0.99041558  0.03664895  0.41790928  1.0
  O  O7987  1  0.99041558  0.20331562  0.41790928  1.0
  O  O7988  1  0.99041558  0.36998228  0.41790928  1.0
  O  O7989  1  0.99041558  0.53664895  0.41790928  1.0
  O  O7990  1  0.99041558  0.70331562  0.41790928  1.0
  O  O7991  1  0.99041558  0.86998228  0.41790928  1.0
  O  O7992  1  0.04993939  0.02474419  0.48933785  1.0
  O  O7993  1  0.04993939  0.19141086  0.48933785  1.0
  O  O7994  1  0.04993939  0.35807752  0.48933785  1.0
  O  O7995  1  0.04993939  0.52474419  0.48933785  1.0
  O  O7996  1  0.04993939  0.69141086  0.48933785  1.0
  O  O7997  1  0.04993939  0.85807752  0.48933785  1.0
  O  O7998  1  0.13327272  0.02474419  0.48933785  1.0
  O  O7999  1  0.13327272  0.19141086  0.48933785  1.0
  O  O8000  1  0.13327272  0.35807752  0.48933785  1.0
  O  O8001  1  0.13327272  0.52474419  0.48933785  1.0
  O  O8002  1  0.13327272  0.69141086  0.48933785  1.0
  O  O8003  1  0.13327272  0.85807752  0.48933785  1.0
  O  O8004  1  0.21660606  0.02474419  0.48933785  1.0
  O  O8005  1  0.21660606  0.19141086  0.48933785  1.0
  O  O8006  1  0.21660606  0.35807752  0.48933785  1.0
  O  O8007  1  0.21660606  0.52474419  0.48933785  1.0
  O  O8008  1  0.21660606  0.69141086  0.48933785  1.0
  O  O8009  1  0.21660606  0.85807752  0.48933785  1.0
  O  O8010  1  0.29993939  0.02474419  0.48933785  1.0
  O  O8011  1  0.29993939  0.19141086  0.48933785  1.0
  O  O8012  1  0.29993939  0.35807752  0.48933785  1.0
  O  O8013  1  0.29993939  0.52474419  0.48933785  1.0
  O  O8014  1  0.29993939  0.69141086  0.48933785  1.0
  O  O8015  1  0.29993939  0.85807752  0.48933785  1.0
  O  O8016  1  0.38327272  0.02474419  0.48933785  1.0
  O  O8017  1  0.38327272  0.19141086  0.48933785  1.0
  O  O8018  1  0.38327272  0.35807752  0.48933785  1.0
  O  O8019  1  0.38327272  0.52474419  0.48933785  1.0
  O  O8020  1  0.38327272  0.69141086  0.48933785  1.0
  O  O8021  1  0.38327272  0.85807752  0.48933785  1.0
  O  O8022  1  0.46660606  0.02474419  0.48933785  1.0
  O  O8023  1  0.46660606  0.19141086  0.48933785  1.0
  O  O8024  1  0.46660606  0.35807752  0.48933785  1.0
  O  O8025  1  0.46660606  0.52474419  0.48933785  1.0
  O  O8026  1  0.46660606  0.69141086  0.48933785  1.0
  O  O8027  1  0.46660606  0.85807752  0.48933785  1.0
  O  O8028  1  0.54993939  0.02474419  0.48933785  1.0
  O  O8029  1  0.54993939  0.19141086  0.48933785  1.0
  O  O8030  1  0.54993939  0.35807752  0.48933785  1.0
  O  O8031  1  0.54993939  0.52474419  0.48933785  1.0
  O  O8032  1  0.54993939  0.69141086  0.48933785  1.0
  O  O8033  1  0.54993939  0.85807752  0.48933785  1.0
  O  O8034  1  0.63327272  0.02474419  0.48933785  1.0
  O  O8035  1  0.63327272  0.19141086  0.48933785  1.0
  O  O8036  1  0.63327272  0.35807752  0.48933785  1.0
  O  O8037  1  0.63327272  0.52474419  0.48933785  1.0
  O  O8038  1  0.63327272  0.69141086  0.48933785  1.0
  O  O8039  1  0.63327272  0.85807752  0.48933785  1.0
  O  O8040  1  0.71660606  0.02474419  0.48933785  1.0
  O  O8041  1  0.71660606  0.19141086  0.48933785  1.0
  O  O8042  1  0.71660606  0.35807752  0.48933785  1.0
  O  O8043  1  0.71660606  0.52474419  0.48933785  1.0
  O  O8044  1  0.71660606  0.69141086  0.48933785  1.0
  O  O8045  1  0.71660606  0.85807752  0.48933785  1.0
  O  O8046  1  0.79993939  0.02474419  0.48933785  1.0
  O  O8047  1  0.79993939  0.19141086  0.48933785  1.0
  O  O8048  1  0.79993939  0.35807752  0.48933785  1.0
  O  O8049  1  0.79993939  0.52474419  0.48933785  1.0
  O  O8050  1  0.79993939  0.69141086  0.48933785  1.0
  O  O8051  1  0.79993939  0.85807752  0.48933785  1.0
  O  O8052  1  0.88327272  0.02474419  0.48933785  1.0
  O  O8053  1  0.88327272  0.19141086  0.48933785  1.0
  O  O8054  1  0.88327272  0.35807752  0.48933785  1.0
  O  O8055  1  0.88327272  0.52474419  0.48933785  1.0
  O  O8056  1  0.88327272  0.69141086  0.48933785  1.0
  O  O8057  1  0.88327272  0.85807752  0.48933785  1.0
  O  O8058  1  0.96660606  0.02474419  0.48933785  1.0
  O  O8059  1  0.96660606  0.19141086  0.48933785  1.0
  O  O8060  1  0.96660606  0.35807752  0.48933785  1.0
  O  O8061  1  0.96660606  0.52474419  0.48933785  1.0
  O  O8062  1  0.96660606  0.69141086  0.48933785  1.0
  O  O8063  1  0.96660606  0.85807752  0.48933785  1.0
  O  O8064  1  0.07658162  0.15835612  0.40851316  1.0
  O  O8065  1  0.07658162  0.32502278  0.40851316  1.0
  O  O8066  1  0.07658162  0.49168945  0.40851316  1.0
  O  O8067  1  0.07658162  0.65835612  0.40851316  1.0
  O  O8068  1  0.07658162  0.82502278  0.40851316  1.0
  O  O8069  1  0.07658162  0.99168945  0.40851316  1.0
  O  O8070  1  0.15991495  0.15835612  0.40851316  1.0
  O  O8071  1  0.15991495  0.32502278  0.40851316  1.0
  O  O8072  1  0.15991495  0.49168945  0.40851316  1.0
  O  O8073  1  0.15991495  0.65835612  0.40851316  1.0
  O  O8074  1  0.15991495  0.82502278  0.40851316  1.0
  O  O8075  1  0.15991495  0.99168945  0.40851316  1.0
  O  O8076  1  0.24324829  0.15835612  0.40851316  1.0
  O  O8077  1  0.24324829  0.32502278  0.40851316  1.0
  O  O8078  1  0.24324829  0.49168945  0.40851316  1.0
  O  O8079  1  0.24324829  0.65835612  0.40851316  1.0
  O  O8080  1  0.24324829  0.82502278  0.40851316  1.0
  O  O8081  1  0.24324829  0.99168945  0.40851316  1.0
  O  O8082  1  0.32658162  0.15835612  0.40851316  1.0
  O  O8083  1  0.32658162  0.32502278  0.40851316  1.0
  O  O8084  1  0.32658162  0.49168945  0.40851316  1.0
  O  O8085  1  0.32658162  0.65835612  0.40851316  1.0
  O  O8086  1  0.32658162  0.82502278  0.40851316  1.0
  O  O8087  1  0.32658162  0.99168945  0.40851316  1.0
  O  O8088  1  0.40991495  0.15835612  0.40851316  1.0
  O  O8089  1  0.40991495  0.32502278  0.40851316  1.0
  O  O8090  1  0.40991495  0.49168945  0.40851316  1.0
  O  O8091  1  0.40991495  0.65835612  0.40851316  1.0
  O  O8092  1  0.40991495  0.82502278  0.40851316  1.0
  O  O8093  1  0.40991495  0.99168945  0.40851316  1.0
  O  O8094  1  0.49324829  0.15835612  0.40851316  1.0
  O  O8095  1  0.49324829  0.32502278  0.40851316  1.0
  O  O8096  1  0.49324829  0.49168945  0.40851316  1.0
  O  O8097  1  0.49324829  0.65835612  0.40851316  1.0
  O  O8098  1  0.49324829  0.82502278  0.40851316  1.0
  O  O8099  1  0.49324829  0.99168945  0.40851316  1.0
  O  O8100  1  0.57658162  0.15835612  0.40851316  1.0
  O  O8101  1  0.57658162  0.32502278  0.40851316  1.0
  O  O8102  1  0.57658162  0.49168945  0.40851316  1.0
  O  O8103  1  0.57658162  0.65835612  0.40851316  1.0
  O  O8104  1  0.57658162  0.82502278  0.40851316  1.0
  O  O8105  1  0.57658162  0.99168945  0.40851316  1.0
  O  O8106  1  0.65991495  0.15835612  0.40851316  1.0
  O  O8107  1  0.65991495  0.32502278  0.40851316  1.0
  O  O8108  1  0.65991495  0.49168945  0.40851316  1.0
  O  O8109  1  0.65991495  0.65835612  0.40851316  1.0
  O  O8110  1  0.65991495  0.82502278  0.40851316  1.0
  O  O8111  1  0.65991495  0.99168945  0.40851316  1.0
  O  O8112  1  0.74324829  0.15835612  0.40851316  1.0
  O  O8113  1  0.74324829  0.32502278  0.40851316  1.0
  O  O8114  1  0.74324829  0.49168945  0.40851316  1.0
  O  O8115  1  0.74324829  0.65835612  0.40851316  1.0
  O  O8116  1  0.74324829  0.82502278  0.40851316  1.0
  O  O8117  1  0.74324829  0.99168945  0.40851316  1.0
  O  O8118  1  0.82658162  0.15835612  0.40851316  1.0
  O  O8119  1  0.82658162  0.32502278  0.40851316  1.0
  O  O8120  1  0.82658162  0.49168945  0.40851316  1.0
  O  O8121  1  0.82658162  0.65835612  0.40851316  1.0
  O  O8122  1  0.82658162  0.82502278  0.40851316  1.0
  O  O8123  1  0.82658162  0.99168945  0.40851316  1.0
  O  O8124  1  0.90991495  0.15835612  0.40851316  1.0
  O  O8125  1  0.90991495  0.32502278  0.40851316  1.0
  O  O8126  1  0.90991495  0.49168945  0.40851316  1.0
  O  O8127  1  0.90991495  0.65835612  0.40851316  1.0
  O  O8128  1  0.90991495  0.82502278  0.40851316  1.0
  O  O8129  1  0.90991495  0.99168945  0.40851316  1.0
  O  O8130  1  0.99324829  0.15835612  0.40851316  1.0
  O  O8131  1  0.99324829  0.32502278  0.40851316  1.0
  O  O8132  1  0.99324829  0.49168945  0.40851316  1.0
  O  O8133  1  0.99324829  0.65835612  0.40851316  1.0
  O  O8134  1  0.99324829  0.82502278  0.40851316  1.0
  O  O8135  1  0.99324829  0.99168945  0.40851316  1.0
  O  O8136  1  0.05277210  0.14645135  0.47994173  1.0
  O  O8137  1  0.05277210  0.31311802  0.47994173  1.0
  O  O8138  1  0.05277210  0.47978469  0.47994173  1.0
  O  O8139  1  0.05277210  0.64645135  0.47994173  1.0
  O  O8140  1  0.05277210  0.81311802  0.47994173  1.0
  O  O8141  1  0.05277210  0.97978469  0.47994173  1.0
  O  O8142  1  0.13610543  0.14645135  0.47994173  1.0
  O  O8143  1  0.13610543  0.31311802  0.47994173  1.0
  O  O8144  1  0.13610543  0.47978469  0.47994173  1.0
  O  O8145  1  0.13610543  0.64645135  0.47994173  1.0
  O  O8146  1  0.13610543  0.81311802  0.47994173  1.0
  O  O8147  1  0.13610543  0.97978469  0.47994173  1.0
  O  O8148  1  0.21943876  0.14645135  0.47994173  1.0
  O  O8149  1  0.21943876  0.31311802  0.47994173  1.0
  O  O8150  1  0.21943876  0.47978469  0.47994173  1.0
  O  O8151  1  0.21943876  0.64645135  0.47994173  1.0
  O  O8152  1  0.21943876  0.81311802  0.47994173  1.0
  O  O8153  1  0.21943876  0.97978469  0.47994173  1.0
  O  O8154  1  0.30277210  0.14645135  0.47994173  1.0
  O  O8155  1  0.30277210  0.31311802  0.47994173  1.0
  O  O8156  1  0.30277210  0.47978469  0.47994173  1.0
  O  O8157  1  0.30277210  0.64645135  0.47994173  1.0
  O  O8158  1  0.30277210  0.81311802  0.47994173  1.0
  O  O8159  1  0.30277210  0.97978469  0.47994173  1.0
  O  O8160  1  0.38610543  0.14645135  0.47994173  1.0
  O  O8161  1  0.38610543  0.31311802  0.47994173  1.0
  O  O8162  1  0.38610543  0.47978469  0.47994173  1.0
  O  O8163  1  0.38610543  0.64645135  0.47994173  1.0
  O  O8164  1  0.38610543  0.81311802  0.47994173  1.0
  O  O8165  1  0.38610543  0.97978469  0.47994173  1.0
  O  O8166  1  0.46943876  0.14645135  0.47994173  1.0
  O  O8167  1  0.46943876  0.31311802  0.47994173  1.0
  O  O8168  1  0.46943876  0.47978469  0.47994173  1.0
  O  O8169  1  0.46943876  0.64645135  0.47994173  1.0
  O  O8170  1  0.46943876  0.81311802  0.47994173  1.0
  O  O8171  1  0.46943876  0.97978469  0.47994173  1.0
  O  O8172  1  0.55277210  0.14645135  0.47994173  1.0
  O  O8173  1  0.55277210  0.31311802  0.47994173  1.0
  O  O8174  1  0.55277210  0.47978469  0.47994173  1.0
  O  O8175  1  0.55277210  0.64645135  0.47994173  1.0
  O  O8176  1  0.55277210  0.81311802  0.47994173  1.0
  O  O8177  1  0.55277210  0.97978469  0.47994173  1.0
  O  O8178  1  0.63610543  0.14645135  0.47994173  1.0
  O  O8179  1  0.63610543  0.31311802  0.47994173  1.0
  O  O8180  1  0.63610543  0.47978469  0.47994173  1.0
  O  O8181  1  0.63610543  0.64645135  0.47994173  1.0
  O  O8182  1  0.63610543  0.81311802  0.47994173  1.0
  O  O8183  1  0.63610543  0.97978469  0.47994173  1.0
  O  O8184  1  0.71943876  0.14645135  0.47994173  1.0
  O  O8185  1  0.71943876  0.31311802  0.47994173  1.0
  O  O8186  1  0.71943876  0.47978469  0.47994173  1.0
  O  O8187  1  0.71943876  0.64645135  0.47994173  1.0
  O  O8188  1  0.71943876  0.81311802  0.47994173  1.0
  O  O8189  1  0.71943876  0.97978469  0.47994173  1.0
  O  O8190  1  0.80277210  0.14645135  0.47994173  1.0
  O  O8191  1  0.80277210  0.31311802  0.47994173  1.0
  O  O8192  1  0.80277210  0.47978469  0.47994173  1.0
  O  O8193  1  0.80277210  0.64645135  0.47994173  1.0
  O  O8194  1  0.80277210  0.81311802  0.47994173  1.0
  O  O8195  1  0.80277210  0.97978469  0.47994173  1.0
  O  O8196  1  0.88610543  0.14645135  0.47994173  1.0
  O  O8197  1  0.88610543  0.31311802  0.47994173  1.0
  O  O8198  1  0.88610543  0.47978469  0.47994173  1.0
  O  O8199  1  0.88610543  0.64645135  0.47994173  1.0
  O  O8200  1  0.88610543  0.81311802  0.47994173  1.0
  O  O8201  1  0.88610543  0.97978469  0.47994173  1.0
  O  O8202  1  0.96943876  0.14645135  0.47994173  1.0
  O  O8203  1  0.96943876  0.31311802  0.47994173  1.0
  O  O8204  1  0.96943876  0.47978469  0.47994173  1.0
  O  O8205  1  0.96943876  0.64645135  0.47994173  1.0
  O  O8206  1  0.96943876  0.81311802  0.47994173  1.0
  O  O8207  1  0.96943876  0.97978469  0.47994173  1.0
  O  O8208  1  0.04630041  0.16503095  0.37235536  1.0
  O  O8209  1  0.04630041  0.33169762  0.37235536  1.0
  O  O8210  1  0.04630041  0.49836428  0.37235536  1.0
  O  O8211  1  0.04630041  0.66503095  0.37235536  1.0
  O  O8212  1  0.04630041  0.83169762  0.37235536  1.0
  O  O8213  1  0.04630041  0.99836428  0.37235536  1.0
  O  O8214  1  0.12963374  0.16503095  0.37235536  1.0
  O  O8215  1  0.12963374  0.33169762  0.37235536  1.0
  O  O8216  1  0.12963374  0.49836428  0.37235536  1.0
  O  O8217  1  0.12963374  0.66503095  0.37235536  1.0
  O  O8218  1  0.12963374  0.83169762  0.37235536  1.0
  O  O8219  1  0.12963374  0.99836428  0.37235536  1.0
  O  O8220  1  0.21296707  0.16503095  0.37235536  1.0
  O  O8221  1  0.21296707  0.33169762  0.37235536  1.0
  O  O8222  1  0.21296707  0.49836428  0.37235536  1.0
  O  O8223  1  0.21296707  0.66503095  0.37235536  1.0
  O  O8224  1  0.21296707  0.83169762  0.37235536  1.0
  O  O8225  1  0.21296707  0.99836428  0.37235536  1.0
  O  O8226  1  0.29630041  0.16503095  0.37235536  1.0
  O  O8227  1  0.29630041  0.33169762  0.37235536  1.0
  O  O8228  1  0.29630041  0.49836428  0.37235536  1.0
  O  O8229  1  0.29630041  0.66503095  0.37235536  1.0
  O  O8230  1  0.29630041  0.83169762  0.37235536  1.0
  O  O8231  1  0.29630041  0.99836428  0.37235536  1.0
  O  O8232  1  0.37963374  0.16503095  0.37235536  1.0
  O  O8233  1  0.37963374  0.33169762  0.37235536  1.0
  O  O8234  1  0.37963374  0.49836428  0.37235536  1.0
  O  O8235  1  0.37963374  0.66503095  0.37235536  1.0
  O  O8236  1  0.37963374  0.83169762  0.37235536  1.0
  O  O8237  1  0.37963374  0.99836428  0.37235536  1.0
  O  O8238  1  0.46296707  0.16503095  0.37235536  1.0
  O  O8239  1  0.46296707  0.33169762  0.37235536  1.0
  O  O8240  1  0.46296707  0.49836428  0.37235536  1.0
  O  O8241  1  0.46296707  0.66503095  0.37235536  1.0
  O  O8242  1  0.46296707  0.83169762  0.37235536  1.0
  O  O8243  1  0.46296707  0.99836428  0.37235536  1.0
  O  O8244  1  0.54630041  0.16503095  0.37235536  1.0
  O  O8245  1  0.54630041  0.33169762  0.37235536  1.0
  O  O8246  1  0.54630041  0.49836428  0.37235536  1.0
  O  O8247  1  0.54630041  0.66503095  0.37235536  1.0
  O  O8248  1  0.54630041  0.83169762  0.37235536  1.0
  O  O8249  1  0.54630041  0.99836428  0.37235536  1.0
  O  O8250  1  0.62963374  0.16503095  0.37235536  1.0
  O  O8251  1  0.62963374  0.33169762  0.37235536  1.0
  O  O8252  1  0.62963374  0.49836428  0.37235536  1.0
  O  O8253  1  0.62963374  0.66503095  0.37235536  1.0
  O  O8254  1  0.62963374  0.83169762  0.37235536  1.0
  O  O8255  1  0.62963374  0.99836428  0.37235536  1.0
  O  O8256  1  0.71296707  0.16503095  0.37235536  1.0
  O  O8257  1  0.71296707  0.33169762  0.37235536  1.0
  O  O8258  1  0.71296707  0.49836428  0.37235536  1.0
  O  O8259  1  0.71296707  0.66503095  0.37235536  1.0
  O  O8260  1  0.71296707  0.83169762  0.37235536  1.0
  O  O8261  1  0.71296707  0.99836428  0.37235536  1.0
  O  O8262  1  0.79630041  0.16503095  0.37235536  1.0
  O  O8263  1  0.79630041  0.33169762  0.37235536  1.0
  O  O8264  1  0.79630041  0.49836428  0.37235536  1.0
  O  O8265  1  0.79630041  0.66503095  0.37235536  1.0
  O  O8266  1  0.79630041  0.83169762  0.37235536  1.0
  O  O8267  1  0.79630041  0.99836428  0.37235536  1.0
  O  O8268  1  0.87963374  0.16503095  0.37235536  1.0
  O  O8269  1  0.87963374  0.33169762  0.37235536  1.0
  O  O8270  1  0.87963374  0.49836428  0.37235536  1.0
  O  O8271  1  0.87963374  0.66503095  0.37235536  1.0
  O  O8272  1  0.87963374  0.83169762  0.37235536  1.0
  O  O8273  1  0.87963374  0.99836428  0.37235536  1.0
  O  O8274  1  0.96296707  0.16503095  0.37235536  1.0
  O  O8275  1  0.96296707  0.33169762  0.37235536  1.0
  O  O8276  1  0.96296707  0.49836428  0.37235536  1.0
  O  O8277  1  0.96296707  0.66503095  0.37235536  1.0
  O  O8278  1  0.96296707  0.83169762  0.37235536  1.0
  O  O8279  1  0.96296707  0.99836428  0.37235536  1.0
  O  O8280  1  0.02249088  0.15312619  0.44378393  1.0
  O  O8281  1  0.02249088  0.31979286  0.44378393  1.0
  O  O8282  1  0.02249088  0.48645952  0.44378393  1.0
  O  O8283  1  0.02249088  0.65312619  0.44378393  1.0
  O  O8284  1  0.02249088  0.81979286  0.44378393  1.0
  O  O8285  1  0.02249088  0.98645952  0.44378393  1.0
  O  O8286  1  0.10582422  0.15312619  0.44378393  1.0
  O  O8287  1  0.10582422  0.31979286  0.44378393  1.0
  O  O8288  1  0.10582422  0.48645952  0.44378393  1.0
  O  O8289  1  0.10582422  0.65312619  0.44378393  1.0
  O  O8290  1  0.10582422  0.81979286  0.44378393  1.0
  O  O8291  1  0.10582422  0.98645952  0.44378393  1.0
  O  O8292  1  0.18915755  0.15312619  0.44378393  1.0
  O  O8293  1  0.18915755  0.31979286  0.44378393  1.0
  O  O8294  1  0.18915755  0.48645952  0.44378393  1.0
  O  O8295  1  0.18915755  0.65312619  0.44378393  1.0
  O  O8296  1  0.18915755  0.81979286  0.44378393  1.0
  O  O8297  1  0.18915755  0.98645952  0.44378393  1.0
  O  O8298  1  0.27249088  0.15312619  0.44378393  1.0
  O  O8299  1  0.27249088  0.31979286  0.44378393  1.0
  O  O8300  1  0.27249088  0.48645952  0.44378393  1.0
  O  O8301  1  0.27249088  0.65312619  0.44378393  1.0
  O  O8302  1  0.27249088  0.81979286  0.44378393  1.0
  O  O8303  1  0.27249088  0.98645952  0.44378393  1.0
  O  O8304  1  0.35582422  0.15312619  0.44378393  1.0
  O  O8305  1  0.35582422  0.31979286  0.44378393  1.0
  O  O8306  1  0.35582422  0.48645952  0.44378393  1.0
  O  O8307  1  0.35582422  0.65312619  0.44378393  1.0
  O  O8308  1  0.35582422  0.81979286  0.44378393  1.0
  O  O8309  1  0.35582422  0.98645952  0.44378393  1.0
  O  O8310  1  0.43915755  0.15312619  0.44378393  1.0
  O  O8311  1  0.43915755  0.31979286  0.44378393  1.0
  O  O8312  1  0.43915755  0.48645952  0.44378393  1.0
  O  O8313  1  0.43915755  0.65312619  0.44378393  1.0
  O  O8314  1  0.43915755  0.81979286  0.44378393  1.0
  O  O8315  1  0.43915755  0.98645952  0.44378393  1.0
  O  O8316  1  0.52249088  0.15312619  0.44378393  1.0
  O  O8317  1  0.52249088  0.31979286  0.44378393  1.0
  O  O8318  1  0.52249088  0.48645952  0.44378393  1.0
  O  O8319  1  0.52249088  0.65312619  0.44378393  1.0
  O  O8320  1  0.52249088  0.81979286  0.44378393  1.0
  O  O8321  1  0.52249088  0.98645952  0.44378393  1.0
  O  O8322  1  0.60582422  0.15312619  0.44378393  1.0
  O  O8323  1  0.60582422  0.31979286  0.44378393  1.0
  O  O8324  1  0.60582422  0.48645952  0.44378393  1.0
  O  O8325  1  0.60582422  0.65312619  0.44378393  1.0
  O  O8326  1  0.60582422  0.81979286  0.44378393  1.0
  O  O8327  1  0.60582422  0.98645952  0.44378393  1.0
  O  O8328  1  0.68915755  0.15312619  0.44378393  1.0
  O  O8329  1  0.68915755  0.31979286  0.44378393  1.0
  O  O8330  1  0.68915755  0.48645952  0.44378393  1.0
  O  O8331  1  0.68915755  0.65312619  0.44378393  1.0
  O  O8332  1  0.68915755  0.81979286  0.44378393  1.0
  O  O8333  1  0.68915755  0.98645952  0.44378393  1.0
  O  O8334  1  0.77249088  0.15312619  0.44378393  1.0
  O  O8335  1  0.77249088  0.31979286  0.44378393  1.0
  O  O8336  1  0.77249088  0.48645952  0.44378393  1.0
  O  O8337  1  0.77249088  0.65312619  0.44378393  1.0
  O  O8338  1  0.77249088  0.81979286  0.44378393  1.0
  O  O8339  1  0.77249088  0.98645952  0.44378393  1.0
  O  O8340  1  0.85582422  0.15312619  0.44378393  1.0
  O  O8341  1  0.85582422  0.31979286  0.44378393  1.0
  O  O8342  1  0.85582422  0.48645952  0.44378393  1.0
  O  O8343  1  0.85582422  0.65312619  0.44378393  1.0
  O  O8344  1  0.85582422  0.81979286  0.44378393  1.0
  O  O8345  1  0.85582422  0.98645952  0.44378393  1.0
  O  O8346  1  0.93915755  0.15312619  0.44378393  1.0
  O  O8347  1  0.93915755  0.31979286  0.44378393  1.0
  O  O8348  1  0.93915755  0.48645952  0.44378393  1.0
  O  O8349  1  0.93915755  0.65312619  0.44378393  1.0
  O  O8350  1  0.93915755  0.81979286  0.44378393  1.0
  O  O8351  1  0.93915755  0.98645952  0.44378393  1.0
  O  O8352  1  0.04347070  0.04331960  0.38175644  1.0
  O  O8353  1  0.04347070  0.20998626  0.38175644  1.0
  O  O8354  1  0.04347070  0.37665293  0.38175644  1.0
  O  O8355  1  0.04347070  0.54331960  0.38175644  1.0
  O  O8356  1  0.04347070  0.70998626  0.38175644  1.0
  O  O8357  1  0.04347070  0.87665293  0.38175644  1.0
  O  O8358  1  0.12680404  0.04331960  0.38175644  1.0
  O  O8359  1  0.12680404  0.20998626  0.38175644  1.0
  O  O8360  1  0.12680404  0.37665293  0.38175644  1.0
  O  O8361  1  0.12680404  0.54331960  0.38175644  1.0
  O  O8362  1  0.12680404  0.70998626  0.38175644  1.0
  O  O8363  1  0.12680404  0.87665293  0.38175644  1.0
  O  O8364  1  0.21013737  0.04331960  0.38175644  1.0
  O  O8365  1  0.21013737  0.20998626  0.38175644  1.0
  O  O8366  1  0.21013737  0.37665293  0.38175644  1.0
  O  O8367  1  0.21013737  0.54331960  0.38175644  1.0
  O  O8368  1  0.21013737  0.70998626  0.38175644  1.0
  O  O8369  1  0.21013737  0.87665293  0.38175644  1.0
  O  O8370  1  0.29347070  0.04331960  0.38175644  1.0
  O  O8371  1  0.29347070  0.20998626  0.38175644  1.0
  O  O8372  1  0.29347070  0.37665293  0.38175644  1.0
  O  O8373  1  0.29347070  0.54331960  0.38175644  1.0
  O  O8374  1  0.29347070  0.70998626  0.38175644  1.0
  O  O8375  1  0.29347070  0.87665293  0.38175644  1.0
  O  O8376  1  0.37680404  0.04331960  0.38175644  1.0
  O  O8377  1  0.37680404  0.20998626  0.38175644  1.0
  O  O8378  1  0.37680404  0.37665293  0.38175644  1.0
  O  O8379  1  0.37680404  0.54331960  0.38175644  1.0
  O  O8380  1  0.37680404  0.70998626  0.38175644  1.0
  O  O8381  1  0.37680404  0.87665293  0.38175644  1.0
  O  O8382  1  0.46013737  0.04331960  0.38175644  1.0
  O  O8383  1  0.46013737  0.20998626  0.38175644  1.0
  O  O8384  1  0.46013737  0.37665293  0.38175644  1.0
  O  O8385  1  0.46013737  0.54331960  0.38175644  1.0
  O  O8386  1  0.46013737  0.70998626  0.38175644  1.0
  O  O8387  1  0.46013737  0.87665293  0.38175644  1.0
  O  O8388  1  0.54347070  0.04331960  0.38175644  1.0
  O  O8389  1  0.54347070  0.20998626  0.38175644  1.0
  O  O8390  1  0.54347070  0.37665293  0.38175644  1.0
  O  O8391  1  0.54347070  0.54331960  0.38175644  1.0
  O  O8392  1  0.54347070  0.70998626  0.38175644  1.0
  O  O8393  1  0.54347070  0.87665293  0.38175644  1.0
  O  O8394  1  0.62680404  0.04331960  0.38175644  1.0
  O  O8395  1  0.62680404  0.20998626  0.38175644  1.0
  O  O8396  1  0.62680404  0.37665293  0.38175644  1.0
  O  O8397  1  0.62680404  0.54331960  0.38175644  1.0
  O  O8398  1  0.62680404  0.70998626  0.38175644  1.0
  O  O8399  1  0.62680404  0.87665293  0.38175644  1.0
  O  O8400  1  0.71013737  0.04331960  0.38175644  1.0
  O  O8401  1  0.71013737  0.20998626  0.38175644  1.0
  O  O8402  1  0.71013737  0.37665293  0.38175644  1.0
  O  O8403  1  0.71013737  0.54331960  0.38175644  1.0
  O  O8404  1  0.71013737  0.70998626  0.38175644  1.0
  O  O8405  1  0.71013737  0.87665293  0.38175644  1.0
  O  O8406  1  0.79347070  0.04331960  0.38175644  1.0
  O  O8407  1  0.79347070  0.20998626  0.38175644  1.0
  O  O8408  1  0.79347070  0.37665293  0.38175644  1.0
  O  O8409  1  0.79347070  0.54331960  0.38175644  1.0
  O  O8410  1  0.79347070  0.70998626  0.38175644  1.0
  O  O8411  1  0.79347070  0.87665293  0.38175644  1.0
  O  O8412  1  0.87680404  0.04331960  0.38175644  1.0
  O  O8413  1  0.87680404  0.20998626  0.38175644  1.0
  O  O8414  1  0.87680404  0.37665293  0.38175644  1.0
  O  O8415  1  0.87680404  0.54331960  0.38175644  1.0
  O  O8416  1  0.87680404  0.70998626  0.38175644  1.0
  O  O8417  1  0.87680404  0.87665293  0.38175644  1.0
  O  O8418  1  0.96013737  0.04331960  0.38175644  1.0
  O  O8419  1  0.96013737  0.20998626  0.38175644  1.0
  O  O8420  1  0.96013737  0.37665293  0.38175644  1.0
  O  O8421  1  0.96013737  0.54331960  0.38175644  1.0
  O  O8422  1  0.96013737  0.70998626  0.38175644  1.0
  O  O8423  1  0.96013737  0.87665293  0.38175644  1.0
  O  O8424  1  0.01966118  0.03141483  0.45318501  1.0
  O  O8425  1  0.01966118  0.19808150  0.45318501  1.0
  O  O8426  1  0.01966118  0.36474817  0.45318501  1.0
  O  O8427  1  0.01966118  0.53141483  0.45318501  1.0
  O  O8428  1  0.01966118  0.69808150  0.45318501  1.0
  O  O8429  1  0.01966118  0.86474817  0.45318501  1.0
  O  O8430  1  0.10299451  0.03141483  0.45318501  1.0
  O  O8431  1  0.10299451  0.19808150  0.45318501  1.0
  O  O8432  1  0.10299451  0.36474817  0.45318501  1.0
  O  O8433  1  0.10299451  0.53141483  0.45318501  1.0
  O  O8434  1  0.10299451  0.69808150  0.45318501  1.0
  O  O8435  1  0.10299451  0.86474817  0.45318501  1.0
  O  O8436  1  0.18632785  0.03141483  0.45318501  1.0
  O  O8437  1  0.18632785  0.19808150  0.45318501  1.0
  O  O8438  1  0.18632785  0.36474817  0.45318501  1.0
  O  O8439  1  0.18632785  0.53141483  0.45318501  1.0
  O  O8440  1  0.18632785  0.69808150  0.45318501  1.0
  O  O8441  1  0.18632785  0.86474817  0.45318501  1.0
  O  O8442  1  0.26966118  0.03141483  0.45318501  1.0
  O  O8443  1  0.26966118  0.19808150  0.45318501  1.0
  O  O8444  1  0.26966118  0.36474817  0.45318501  1.0
  O  O8445  1  0.26966118  0.53141483  0.45318501  1.0
  O  O8446  1  0.26966118  0.69808150  0.45318501  1.0
  O  O8447  1  0.26966118  0.86474817  0.45318501  1.0
  O  O8448  1  0.35299451  0.03141483  0.45318501  1.0
  O  O8449  1  0.35299451  0.19808150  0.45318501  1.0
  O  O8450  1  0.35299451  0.36474817  0.45318501  1.0
  O  O8451  1  0.35299451  0.53141483  0.45318501  1.0
  O  O8452  1  0.35299451  0.69808150  0.45318501  1.0
  O  O8453  1  0.35299451  0.86474817  0.45318501  1.0
  O  O8454  1  0.43632785  0.03141483  0.45318501  1.0
  O  O8455  1  0.43632785  0.19808150  0.45318501  1.0
  O  O8456  1  0.43632785  0.36474817  0.45318501  1.0
  O  O8457  1  0.43632785  0.53141483  0.45318501  1.0
  O  O8458  1  0.43632785  0.69808150  0.45318501  1.0
  O  O8459  1  0.43632785  0.86474817  0.45318501  1.0
  O  O8460  1  0.51966118  0.03141483  0.45318501  1.0
  O  O8461  1  0.51966118  0.19808150  0.45318501  1.0
  O  O8462  1  0.51966118  0.36474817  0.45318501  1.0
  O  O8463  1  0.51966118  0.53141483  0.45318501  1.0
  O  O8464  1  0.51966118  0.69808150  0.45318501  1.0
  O  O8465  1  0.51966118  0.86474817  0.45318501  1.0
  O  O8466  1  0.60299451  0.03141483  0.45318501  1.0
  O  O8467  1  0.60299451  0.19808150  0.45318501  1.0
  O  O8468  1  0.60299451  0.36474817  0.45318501  1.0
  O  O8469  1  0.60299451  0.53141483  0.45318501  1.0
  O  O8470  1  0.60299451  0.69808150  0.45318501  1.0
  O  O8471  1  0.60299451  0.86474817  0.45318501  1.0
  O  O8472  1  0.68632785  0.03141483  0.45318501  1.0
  O  O8473  1  0.68632785  0.19808150  0.45318501  1.0
  O  O8474  1  0.68632785  0.36474817  0.45318501  1.0
  O  O8475  1  0.68632785  0.53141483  0.45318501  1.0
  O  O8476  1  0.68632785  0.69808150  0.45318501  1.0
  O  O8477  1  0.68632785  0.86474817  0.45318501  1.0
  O  O8478  1  0.76966118  0.03141483  0.45318501  1.0
  O  O8479  1  0.76966118  0.19808150  0.45318501  1.0
  O  O8480  1  0.76966118  0.36474817  0.45318501  1.0
  O  O8481  1  0.76966118  0.53141483  0.45318501  1.0
  O  O8482  1  0.76966118  0.69808150  0.45318501  1.0
  O  O8483  1  0.76966118  0.86474817  0.45318501  1.0
  O  O8484  1  0.85299451  0.03141483  0.45318501  1.0
  O  O8485  1  0.85299451  0.19808150  0.45318501  1.0
  O  O8486  1  0.85299451  0.36474817  0.45318501  1.0
  O  O8487  1  0.85299451  0.53141483  0.45318501  1.0
  O  O8488  1  0.85299451  0.69808150  0.45318501  1.0
  O  O8489  1  0.85299451  0.86474817  0.45318501  1.0
  O  O8490  1  0.93632785  0.03141483  0.45318501  1.0
  O  O8491  1  0.93632785  0.19808150  0.45318501  1.0
  O  O8492  1  0.93632785  0.36474817  0.45318501  1.0
  O  O8493  1  0.93632785  0.53141483  0.45318501  1.0
  O  O8494  1  0.93632785  0.69808150  0.45318501  1.0
  O  O8495  1  0.93632785  0.86474817  0.45318501  1.0
  O  O8496  1  0.04092709  0.08988887  0.39378257  1.0
  O  O8497  1  0.04092709  0.25655553  0.39378257  1.0
  O  O8498  1  0.04092709  0.42322220  0.39378257  1.0
  O  O8499  1  0.04092709  0.58988887  0.39378257  1.0
  O  O8500  1  0.04092709  0.75655553  0.39378257  1.0
  O  O8501  1  0.04092709  0.92322220  0.39378257  1.0
  O  O8502  1  0.12426042  0.08988887  0.39378257  1.0
  O  O8503  1  0.12426042  0.25655553  0.39378257  1.0
  O  O8504  1  0.12426042  0.42322220  0.39378257  1.0
  O  O8505  1  0.12426042  0.58988887  0.39378257  1.0
  O  O8506  1  0.12426042  0.75655553  0.39378257  1.0
  O  O8507  1  0.12426042  0.92322220  0.39378257  1.0
  O  O8508  1  0.20759376  0.08988887  0.39378257  1.0
  O  O8509  1  0.20759376  0.25655553  0.39378257  1.0
  O  O8510  1  0.20759376  0.42322220  0.39378257  1.0
  O  O8511  1  0.20759376  0.58988887  0.39378257  1.0
  O  O8512  1  0.20759376  0.75655553  0.39378257  1.0
  O  O8513  1  0.20759376  0.92322220  0.39378257  1.0
  O  O8514  1  0.29092709  0.08988887  0.39378257  1.0
  O  O8515  1  0.29092709  0.25655553  0.39378257  1.0
  O  O8516  1  0.29092709  0.42322220  0.39378257  1.0
  O  O8517  1  0.29092709  0.58988887  0.39378257  1.0
  O  O8518  1  0.29092709  0.75655553  0.39378257  1.0
  O  O8519  1  0.29092709  0.92322220  0.39378257  1.0
  O  O8520  1  0.37426042  0.08988887  0.39378257  1.0
  O  O8521  1  0.37426042  0.25655553  0.39378257  1.0
  O  O8522  1  0.37426042  0.42322220  0.39378257  1.0
  O  O8523  1  0.37426042  0.58988887  0.39378257  1.0
  O  O8524  1  0.37426042  0.75655553  0.39378257  1.0
  O  O8525  1  0.37426042  0.92322220  0.39378257  1.0
  O  O8526  1  0.45759376  0.08988887  0.39378257  1.0
  O  O8527  1  0.45759376  0.25655553  0.39378257  1.0
  O  O8528  1  0.45759376  0.42322220  0.39378257  1.0
  O  O8529  1  0.45759376  0.58988887  0.39378257  1.0
  O  O8530  1  0.45759376  0.75655553  0.39378257  1.0
  O  O8531  1  0.45759376  0.92322220  0.39378257  1.0
  O  O8532  1  0.54092709  0.08988887  0.39378257  1.0
  O  O8533  1  0.54092709  0.25655553  0.39378257  1.0
  O  O8534  1  0.54092709  0.42322220  0.39378257  1.0
  O  O8535  1  0.54092709  0.58988887  0.39378257  1.0
  O  O8536  1  0.54092709  0.75655553  0.39378257  1.0
  O  O8537  1  0.54092709  0.92322220  0.39378257  1.0
  O  O8538  1  0.62426042  0.08988887  0.39378257  1.0
  O  O8539  1  0.62426042  0.25655553  0.39378257  1.0
  O  O8540  1  0.62426042  0.42322220  0.39378257  1.0
  O  O8541  1  0.62426042  0.58988887  0.39378257  1.0
  O  O8542  1  0.62426042  0.75655553  0.39378257  1.0
  O  O8543  1  0.62426042  0.92322220  0.39378257  1.0
  O  O8544  1  0.70759376  0.08988887  0.39378257  1.0
  O  O8545  1  0.70759376  0.25655553  0.39378257  1.0
  O  O8546  1  0.70759376  0.42322220  0.39378257  1.0
  O  O8547  1  0.70759376  0.58988887  0.39378257  1.0
  O  O8548  1  0.70759376  0.75655553  0.39378257  1.0
  O  O8549  1  0.70759376  0.92322220  0.39378257  1.0
  O  O8550  1  0.79092709  0.08988887  0.39378257  1.0
  O  O8551  1  0.79092709  0.25655553  0.39378257  1.0
  O  O8552  1  0.79092709  0.42322220  0.39378257  1.0
  O  O8553  1  0.79092709  0.58988887  0.39378257  1.0
  O  O8554  1  0.79092709  0.75655553  0.39378257  1.0
  O  O8555  1  0.79092709  0.92322220  0.39378257  1.0
  O  O8556  1  0.87426042  0.08988887  0.39378257  1.0
  O  O8557  1  0.87426042  0.25655553  0.39378257  1.0
  O  O8558  1  0.87426042  0.42322220  0.39378257  1.0
  O  O8559  1  0.87426042  0.58988887  0.39378257  1.0
  O  O8560  1  0.87426042  0.75655553  0.39378257  1.0
  O  O8561  1  0.87426042  0.92322220  0.39378257  1.0
  O  O8562  1  0.95759376  0.08988887  0.39378257  1.0
  O  O8563  1  0.95759376  0.25655553  0.39378257  1.0
  O  O8564  1  0.95759376  0.42322220  0.39378257  1.0
  O  O8565  1  0.95759376  0.58988887  0.39378257  1.0
  O  O8566  1  0.95759376  0.75655553  0.39378257  1.0
  O  O8567  1  0.95759376  0.92322220  0.39378257  1.0
  O  O8568  1  0.01711757  0.07798411  0.46521115  1.0
  O  O8569  1  0.01711757  0.24465077  0.46521115  1.0
  O  O8570  1  0.01711757  0.41131744  0.46521115  1.0
  O  O8571  1  0.01711757  0.57798411  0.46521115  1.0
  O  O8572  1  0.01711757  0.74465077  0.46521115  1.0
  O  O8573  1  0.01711757  0.91131744  0.46521115  1.0
  O  O8574  1  0.10045090  0.07798411  0.46521115  1.0
  O  O8575  1  0.10045090  0.24465077  0.46521115  1.0
  O  O8576  1  0.10045090  0.41131744  0.46521115  1.0
  O  O8577  1  0.10045090  0.57798411  0.46521115  1.0
  O  O8578  1  0.10045090  0.74465077  0.46521115  1.0
  O  O8579  1  0.10045090  0.91131744  0.46521115  1.0
  O  O8580  1  0.18378423  0.07798411  0.46521115  1.0
  O  O8581  1  0.18378423  0.24465077  0.46521115  1.0
  O  O8582  1  0.18378423  0.41131744  0.46521115  1.0
  O  O8583  1  0.18378423  0.57798411  0.46521115  1.0
  O  O8584  1  0.18378423  0.74465077  0.46521115  1.0
  O  O8585  1  0.18378423  0.91131744  0.46521115  1.0
  O  O8586  1  0.26711757  0.07798411  0.46521115  1.0
  O  O8587  1  0.26711757  0.24465077  0.46521115  1.0
  O  O8588  1  0.26711757  0.41131744  0.46521115  1.0
  O  O8589  1  0.26711757  0.57798411  0.46521115  1.0
  O  O8590  1  0.26711757  0.74465077  0.46521115  1.0
  O  O8591  1  0.26711757  0.91131744  0.46521115  1.0
  O  O8592  1  0.35045090  0.07798411  0.46521115  1.0
  O  O8593  1  0.35045090  0.24465077  0.46521115  1.0
  O  O8594  1  0.35045090  0.41131744  0.46521115  1.0
  O  O8595  1  0.35045090  0.57798411  0.46521115  1.0
  O  O8596  1  0.35045090  0.74465077  0.46521115  1.0
  O  O8597  1  0.35045090  0.91131744  0.46521115  1.0
  O  O8598  1  0.43378423  0.07798411  0.46521115  1.0
  O  O8599  1  0.43378423  0.24465077  0.46521115  1.0
  O  O8600  1  0.43378423  0.41131744  0.46521115  1.0
  O  O8601  1  0.43378423  0.57798411  0.46521115  1.0
  O  O8602  1  0.43378423  0.74465077  0.46521115  1.0
  O  O8603  1  0.43378423  0.91131744  0.46521115  1.0
  O  O8604  1  0.51711757  0.07798411  0.46521115  1.0
  O  O8605  1  0.51711757  0.24465077  0.46521115  1.0
  O  O8606  1  0.51711757  0.41131744  0.46521115  1.0
  O  O8607  1  0.51711757  0.57798411  0.46521115  1.0
  O  O8608  1  0.51711757  0.74465077  0.46521115  1.0
  O  O8609  1  0.51711757  0.91131744  0.46521115  1.0
  O  O8610  1  0.60045090  0.07798411  0.46521115  1.0
  O  O8611  1  0.60045090  0.24465077  0.46521115  1.0
  O  O8612  1  0.60045090  0.41131744  0.46521115  1.0
  O  O8613  1  0.60045090  0.57798411  0.46521115  1.0
  O  O8614  1  0.60045090  0.74465077  0.46521115  1.0
  O  O8615  1  0.60045090  0.91131744  0.46521115  1.0
  O  O8616  1  0.68378423  0.07798411  0.46521115  1.0
  O  O8617  1  0.68378423  0.24465077  0.46521115  1.0
  O  O8618  1  0.68378423  0.41131744  0.46521115  1.0
  O  O8619  1  0.68378423  0.57798411  0.46521115  1.0
  O  O8620  1  0.68378423  0.74465077  0.46521115  1.0
  O  O8621  1  0.68378423  0.91131744  0.46521115  1.0
  O  O8622  1  0.76711757  0.07798411  0.46521115  1.0
  O  O8623  1  0.76711757  0.24465077  0.46521115  1.0
  O  O8624  1  0.76711757  0.41131744  0.46521115  1.0
  O  O8625  1  0.76711757  0.57798411  0.46521115  1.0
  O  O8626  1  0.76711757  0.74465077  0.46521115  1.0
  O  O8627  1  0.76711757  0.91131744  0.46521115  1.0
  O  O8628  1  0.85045090  0.07798411  0.46521115  1.0
  O  O8629  1  0.85045090  0.24465077  0.46521115  1.0
  O  O8630  1  0.85045090  0.41131744  0.46521115  1.0
  O  O8631  1  0.85045090  0.57798411  0.46521115  1.0
  O  O8632  1  0.85045090  0.74465077  0.46521115  1.0
  O  O8633  1  0.85045090  0.91131744  0.46521115  1.0
  O  O8634  1  0.93378423  0.07798411  0.46521115  1.0
  O  O8635  1  0.93378423  0.24465077  0.46521115  1.0
  O  O8636  1  0.93378423  0.41131744  0.46521115  1.0
  O  O8637  1  0.93378423  0.57798411  0.46521115  1.0
  O  O8638  1  0.93378423  0.74465077  0.46521115  1.0
  O  O8639  1  0.93378423  0.91131744  0.46521115  1.0
  O  O8640  1  0.00347179  0.02102280  0.37734467  1.0
  O  O8641  1  0.00347179  0.18768946  0.37734467  1.0
  O  O8642  1  0.00347179  0.35435613  0.37734467  1.0
  O  O8643  1  0.00347179  0.52102280  0.37734467  1.0
  O  O8644  1  0.00347179  0.68768946  0.37734467  1.0
  O  O8645  1  0.00347179  0.85435613  0.37734467  1.0
  O  O8646  1  0.08680512  0.02102280  0.37734467  1.0
  O  O8647  1  0.08680512  0.18768946  0.37734467  1.0
  O  O8648  1  0.08680512  0.35435613  0.37734467  1.0
  O  O8649  1  0.08680512  0.52102280  0.37734467  1.0
  O  O8650  1  0.08680512  0.68768946  0.37734467  1.0
  O  O8651  1  0.08680512  0.85435613  0.37734467  1.0
  O  O8652  1  0.17013845  0.02102280  0.37734467  1.0
  O  O8653  1  0.17013845  0.18768946  0.37734467  1.0
  O  O8654  1  0.17013845  0.35435613  0.37734467  1.0
  O  O8655  1  0.17013845  0.52102280  0.37734467  1.0
  O  O8656  1  0.17013845  0.68768946  0.37734467  1.0
  O  O8657  1  0.17013845  0.85435613  0.37734467  1.0
  O  O8658  1  0.25347179  0.02102280  0.37734467  1.0
  O  O8659  1  0.25347179  0.18768946  0.37734467  1.0
  O  O8660  1  0.25347179  0.35435613  0.37734467  1.0
  O  O8661  1  0.25347179  0.52102280  0.37734467  1.0
  O  O8662  1  0.25347179  0.68768946  0.37734467  1.0
  O  O8663  1  0.25347179  0.85435613  0.37734467  1.0
  O  O8664  1  0.33680512  0.02102280  0.37734467  1.0
  O  O8665  1  0.33680512  0.18768946  0.37734467  1.0
  O  O8666  1  0.33680512  0.35435613  0.37734467  1.0
  O  O8667  1  0.33680512  0.52102280  0.37734467  1.0
  O  O8668  1  0.33680512  0.68768946  0.37734467  1.0
  O  O8669  1  0.33680512  0.85435613  0.37734467  1.0
  O  O8670  1  0.42013845  0.02102280  0.37734467  1.0
  O  O8671  1  0.42013845  0.18768946  0.37734467  1.0
  O  O8672  1  0.42013845  0.35435613  0.37734467  1.0
  O  O8673  1  0.42013845  0.52102280  0.37734467  1.0
  O  O8674  1  0.42013845  0.68768946  0.37734467  1.0
  O  O8675  1  0.42013845  0.85435613  0.37734467  1.0
  O  O8676  1  0.50347179  0.02102280  0.37734467  1.0
  O  O8677  1  0.50347179  0.18768946  0.37734467  1.0
  O  O8678  1  0.50347179  0.35435613  0.37734467  1.0
  O  O8679  1  0.50347179  0.52102280  0.37734467  1.0
  O  O8680  1  0.50347179  0.68768946  0.37734467  1.0
  O  O8681  1  0.50347179  0.85435613  0.37734467  1.0
  O  O8682  1  0.58680512  0.02102280  0.37734467  1.0
  O  O8683  1  0.58680512  0.18768946  0.37734467  1.0
  O  O8684  1  0.58680512  0.35435613  0.37734467  1.0
  O  O8685  1  0.58680512  0.52102280  0.37734467  1.0
  O  O8686  1  0.58680512  0.68768946  0.37734467  1.0
  O  O8687  1  0.58680512  0.85435613  0.37734467  1.0
  O  O8688  1  0.67013845  0.02102280  0.37734467  1.0
  O  O8689  1  0.67013845  0.18768946  0.37734467  1.0
  O  O8690  1  0.67013845  0.35435613  0.37734467  1.0
  O  O8691  1  0.67013845  0.52102280  0.37734467  1.0
  O  O8692  1  0.67013845  0.68768946  0.37734467  1.0
  O  O8693  1  0.67013845  0.85435613  0.37734467  1.0
  O  O8694  1  0.75347179  0.02102280  0.37734467  1.0
  O  O8695  1  0.75347179  0.18768946  0.37734467  1.0
  O  O8696  1  0.75347179  0.35435613  0.37734467  1.0
  O  O8697  1  0.75347179  0.52102280  0.37734467  1.0
  O  O8698  1  0.75347179  0.68768946  0.37734467  1.0
  O  O8699  1  0.75347179  0.85435613  0.37734467  1.0
  O  O8700  1  0.83680512  0.02102280  0.37734467  1.0
  O  O8701  1  0.83680512  0.18768946  0.37734467  1.0
  O  O8702  1  0.83680512  0.35435613  0.37734467  1.0
  O  O8703  1  0.83680512  0.52102280  0.37734467  1.0
  O  O8704  1  0.83680512  0.68768946  0.37734467  1.0
  O  O8705  1  0.83680512  0.85435613  0.37734467  1.0
  O  O8706  1  0.92013845  0.02102280  0.37734467  1.0
  O  O8707  1  0.92013845  0.18768946  0.37734467  1.0
  O  O8708  1  0.92013845  0.35435613  0.37734467  1.0
  O  O8709  1  0.92013845  0.52102280  0.37734467  1.0
  O  O8710  1  0.92013845  0.68768946  0.37734467  1.0
  O  O8711  1  0.92013845  0.85435613  0.37734467  1.0
  O  O8712  1  0.06299559  0.00911803  0.44877325  1.0
  O  O8713  1  0.06299559  0.17578470  0.44877325  1.0
  O  O8714  1  0.06299559  0.34245137  0.44877325  1.0
  O  O8715  1  0.06299559  0.50911803  0.44877325  1.0
  O  O8716  1  0.06299559  0.67578470  0.44877325  1.0
  O  O8717  1  0.06299559  0.84245137  0.44877325  1.0
  O  O8718  1  0.14632893  0.00911803  0.44877325  1.0
  O  O8719  1  0.14632893  0.17578470  0.44877325  1.0
  O  O8720  1  0.14632893  0.34245137  0.44877325  1.0
  O  O8721  1  0.14632893  0.50911803  0.44877325  1.0
  O  O8722  1  0.14632893  0.67578470  0.44877325  1.0
  O  O8723  1  0.14632893  0.84245137  0.44877325  1.0
  O  O8724  1  0.22966226  0.00911803  0.44877325  1.0
  O  O8725  1  0.22966226  0.17578470  0.44877325  1.0
  O  O8726  1  0.22966226  0.34245137  0.44877325  1.0
  O  O8727  1  0.22966226  0.50911803  0.44877325  1.0
  O  O8728  1  0.22966226  0.67578470  0.44877325  1.0
  O  O8729  1  0.22966226  0.84245137  0.44877325  1.0
  O  O8730  1  0.31299559  0.00911803  0.44877325  1.0
  O  O8731  1  0.31299559  0.17578470  0.44877325  1.0
  O  O8732  1  0.31299559  0.34245137  0.44877325  1.0
  O  O8733  1  0.31299559  0.50911803  0.44877325  1.0
  O  O8734  1  0.31299559  0.67578470  0.44877325  1.0
  O  O8735  1  0.31299559  0.84245137  0.44877325  1.0
  O  O8736  1  0.39632893  0.00911803  0.44877325  1.0
  O  O8737  1  0.39632893  0.17578470  0.44877325  1.0
  O  O8738  1  0.39632893  0.34245137  0.44877325  1.0
  O  O8739  1  0.39632893  0.50911803  0.44877325  1.0
  O  O8740  1  0.39632893  0.67578470  0.44877325  1.0
  O  O8741  1  0.39632893  0.84245137  0.44877325  1.0
  O  O8742  1  0.47966226  0.00911803  0.44877325  1.0
  O  O8743  1  0.47966226  0.17578470  0.44877325  1.0
  O  O8744  1  0.47966226  0.34245137  0.44877325  1.0
  O  O8745  1  0.47966226  0.50911803  0.44877325  1.0
  O  O8746  1  0.47966226  0.67578470  0.44877325  1.0
  O  O8747  1  0.47966226  0.84245137  0.44877325  1.0
  O  O8748  1  0.56299559  0.00911803  0.44877325  1.0
  O  O8749  1  0.56299559  0.17578470  0.44877325  1.0
  O  O8750  1  0.56299559  0.34245137  0.44877325  1.0
  O  O8751  1  0.56299559  0.50911803  0.44877325  1.0
  O  O8752  1  0.56299559  0.67578470  0.44877325  1.0
  O  O8753  1  0.56299559  0.84245137  0.44877325  1.0
  O  O8754  1  0.64632893  0.00911803  0.44877325  1.0
  O  O8755  1  0.64632893  0.17578470  0.44877325  1.0
  O  O8756  1  0.64632893  0.34245137  0.44877325  1.0
  O  O8757  1  0.64632893  0.50911803  0.44877325  1.0
  O  O8758  1  0.64632893  0.67578470  0.44877325  1.0
  O  O8759  1  0.64632893  0.84245137  0.44877325  1.0
  O  O8760  1  0.72966226  0.00911803  0.44877325  1.0
  O  O8761  1  0.72966226  0.17578470  0.44877325  1.0
  O  O8762  1  0.72966226  0.34245137  0.44877325  1.0
  O  O8763  1  0.72966226  0.50911803  0.44877325  1.0
  O  O8764  1  0.72966226  0.67578470  0.44877325  1.0
  O  O8765  1  0.72966226  0.84245137  0.44877325  1.0
  O  O8766  1  0.81299559  0.00911803  0.44877325  1.0
  O  O8767  1  0.81299559  0.17578470  0.44877325  1.0
  O  O8768  1  0.81299559  0.34245137  0.44877325  1.0
  O  O8769  1  0.81299559  0.50911803  0.44877325  1.0
  O  O8770  1  0.81299559  0.67578470  0.44877325  1.0
  O  O8771  1  0.81299559  0.84245137  0.44877325  1.0
  O  O8772  1  0.89632893  0.00911803  0.44877325  1.0
  O  O8773  1  0.89632893  0.17578470  0.44877325  1.0
  O  O8774  1  0.89632893  0.34245137  0.44877325  1.0
  O  O8775  1  0.89632893  0.50911803  0.44877325  1.0
  O  O8776  1  0.89632893  0.67578470  0.44877325  1.0
  O  O8777  1  0.89632893  0.84245137  0.44877325  1.0
  O  O8778  1  0.97966226  0.00911803  0.44877325  1.0
  O  O8779  1  0.97966226  0.17578470  0.44877325  1.0
  O  O8780  1  0.97966226  0.34245137  0.44877325  1.0
  O  O8781  1  0.97966226  0.50911803  0.44877325  1.0
  O  O8782  1  0.97966226  0.67578470  0.44877325  1.0
  O  O8783  1  0.97966226  0.84245137  0.44877325  1.0
  O  O8784  1  0.05058999  0.11918818  0.36299822  1.0
  O  O8785  1  0.05058999  0.28585484  0.36299822  1.0
  O  O8786  1  0.05058999  0.45252151  0.36299822  1.0
  O  O8787  1  0.05058999  0.61918818  0.36299822  1.0
  O  O8788  1  0.05058999  0.78585484  0.36299822  1.0
  O  O8789  1  0.05058999  0.95252151  0.36299822  1.0
  O  O8790  1  0.13392332  0.11918818  0.36299822  1.0
  O  O8791  1  0.13392332  0.28585484  0.36299822  1.0
  O  O8792  1  0.13392332  0.45252151  0.36299822  1.0
  O  O8793  1  0.13392332  0.61918818  0.36299822  1.0
  O  O8794  1  0.13392332  0.78585484  0.36299822  1.0
  O  O8795  1  0.13392332  0.95252151  0.36299822  1.0
  O  O8796  1  0.21725666  0.11918818  0.36299822  1.0
  O  O8797  1  0.21725666  0.28585484  0.36299822  1.0
  O  O8798  1  0.21725666  0.45252151  0.36299822  1.0
  O  O8799  1  0.21725666  0.61918818  0.36299822  1.0
  O  O8800  1  0.21725666  0.78585484  0.36299822  1.0
  O  O8801  1  0.21725666  0.95252151  0.36299822  1.0
  O  O8802  1  0.30058999  0.11918818  0.36299822  1.0
  O  O8803  1  0.30058999  0.28585484  0.36299822  1.0
  O  O8804  1  0.30058999  0.45252151  0.36299822  1.0
  O  O8805  1  0.30058999  0.61918818  0.36299822  1.0
  O  O8806  1  0.30058999  0.78585484  0.36299822  1.0
  O  O8807  1  0.30058999  0.95252151  0.36299822  1.0
  O  O8808  1  0.38392332  0.11918818  0.36299822  1.0
  O  O8809  1  0.38392332  0.28585484  0.36299822  1.0
  O  O8810  1  0.38392332  0.45252151  0.36299822  1.0
  O  O8811  1  0.38392332  0.61918818  0.36299822  1.0
  O  O8812  1  0.38392332  0.78585484  0.36299822  1.0
  O  O8813  1  0.38392332  0.95252151  0.36299822  1.0
  O  O8814  1  0.46725666  0.11918818  0.36299822  1.0
  O  O8815  1  0.46725666  0.28585484  0.36299822  1.0
  O  O8816  1  0.46725666  0.45252151  0.36299822  1.0
  O  O8817  1  0.46725666  0.61918818  0.36299822  1.0
  O  O8818  1  0.46725666  0.78585484  0.36299822  1.0
  O  O8819  1  0.46725666  0.95252151  0.36299822  1.0
  O  O8820  1  0.55058999  0.11918818  0.36299822  1.0
  O  O8821  1  0.55058999  0.28585484  0.36299822  1.0
  O  O8822  1  0.55058999  0.45252151  0.36299822  1.0
  O  O8823  1  0.55058999  0.61918818  0.36299822  1.0
  O  O8824  1  0.55058999  0.78585484  0.36299822  1.0
  O  O8825  1  0.55058999  0.95252151  0.36299822  1.0
  O  O8826  1  0.63392332  0.11918818  0.36299822  1.0
  O  O8827  1  0.63392332  0.28585484  0.36299822  1.0
  O  O8828  1  0.63392332  0.45252151  0.36299822  1.0
  O  O8829  1  0.63392332  0.61918818  0.36299822  1.0
  O  O8830  1  0.63392332  0.78585484  0.36299822  1.0
  O  O8831  1  0.63392332  0.95252151  0.36299822  1.0
  O  O8832  1  0.71725666  0.11918818  0.36299822  1.0
  O  O8833  1  0.71725666  0.28585484  0.36299822  1.0
  O  O8834  1  0.71725666  0.45252151  0.36299822  1.0
  O  O8835  1  0.71725666  0.61918818  0.36299822  1.0
  O  O8836  1  0.71725666  0.78585484  0.36299822  1.0
  O  O8837  1  0.71725666  0.95252151  0.36299822  1.0
  O  O8838  1  0.80058999  0.11918818  0.36299822  1.0
  O  O8839  1  0.80058999  0.28585484  0.36299822  1.0
  O  O8840  1  0.80058999  0.45252151  0.36299822  1.0
  O  O8841  1  0.80058999  0.61918818  0.36299822  1.0
  O  O8842  1  0.80058999  0.78585484  0.36299822  1.0
  O  O8843  1  0.80058999  0.95252151  0.36299822  1.0
  O  O8844  1  0.88392332  0.11918818  0.36299822  1.0
  O  O8845  1  0.88392332  0.28585484  0.36299822  1.0
  O  O8846  1  0.88392332  0.45252151  0.36299822  1.0
  O  O8847  1  0.88392332  0.61918818  0.36299822  1.0
  O  O8848  1  0.88392332  0.78585484  0.36299822  1.0
  O  O8849  1  0.88392332  0.95252151  0.36299822  1.0
  O  O8850  1  0.96725666  0.11918818  0.36299822  1.0
  O  O8851  1  0.96725666  0.28585484  0.36299822  1.0
  O  O8852  1  0.96725666  0.45252151  0.36299822  1.0
  O  O8853  1  0.96725666  0.61918818  0.36299822  1.0
  O  O8854  1  0.96725666  0.78585484  0.36299822  1.0
  O  O8855  1  0.96725666  0.95252151  0.36299822  1.0
  O  O8856  1  0.02678047  0.10728341  0.43442679  1.0
  O  O8857  1  0.02678047  0.27395008  0.43442679  1.0
  O  O8858  1  0.02678047  0.44061675  0.43442679  1.0
  O  O8859  1  0.02678047  0.60728341  0.43442679  1.0
  O  O8860  1  0.02678047  0.77395008  0.43442679  1.0
  O  O8861  1  0.02678047  0.94061675  0.43442679  1.0
  O  O8862  1  0.11011380  0.10728341  0.43442679  1.0
  O  O8863  1  0.11011380  0.27395008  0.43442679  1.0
  O  O8864  1  0.11011380  0.44061675  0.43442679  1.0
  O  O8865  1  0.11011380  0.60728341  0.43442679  1.0
  O  O8866  1  0.11011380  0.77395008  0.43442679  1.0
  O  O8867  1  0.11011380  0.94061675  0.43442679  1.0
  O  O8868  1  0.19344713  0.10728341  0.43442679  1.0
  O  O8869  1  0.19344713  0.27395008  0.43442679  1.0
  O  O8870  1  0.19344713  0.44061675  0.43442679  1.0
  O  O8871  1  0.19344713  0.60728341  0.43442679  1.0
  O  O8872  1  0.19344713  0.77395008  0.43442679  1.0
  O  O8873  1  0.19344713  0.94061675  0.43442679  1.0
  O  O8874  1  0.27678047  0.10728341  0.43442679  1.0
  O  O8875  1  0.27678047  0.27395008  0.43442679  1.0
  O  O8876  1  0.27678047  0.44061675  0.43442679  1.0
  O  O8877  1  0.27678047  0.60728341  0.43442679  1.0
  O  O8878  1  0.27678047  0.77395008  0.43442679  1.0
  O  O8879  1  0.27678047  0.94061675  0.43442679  1.0
  O  O8880  1  0.36011380  0.10728341  0.43442679  1.0
  O  O8881  1  0.36011380  0.27395008  0.43442679  1.0
  O  O8882  1  0.36011380  0.44061675  0.43442679  1.0
  O  O8883  1  0.36011380  0.60728341  0.43442679  1.0
  O  O8884  1  0.36011380  0.77395008  0.43442679  1.0
  O  O8885  1  0.36011380  0.94061675  0.43442679  1.0
  O  O8886  1  0.44344713  0.10728341  0.43442679  1.0
  O  O8887  1  0.44344713  0.27395008  0.43442679  1.0
  O  O8888  1  0.44344713  0.44061675  0.43442679  1.0
  O  O8889  1  0.44344713  0.60728341  0.43442679  1.0
  O  O8890  1  0.44344713  0.77395008  0.43442679  1.0
  O  O8891  1  0.44344713  0.94061675  0.43442679  1.0
  O  O8892  1  0.52678047  0.10728341  0.43442679  1.0
  O  O8893  1  0.52678047  0.27395008  0.43442679  1.0
  O  O8894  1  0.52678047  0.44061675  0.43442679  1.0
  O  O8895  1  0.52678047  0.60728341  0.43442679  1.0
  O  O8896  1  0.52678047  0.77395008  0.43442679  1.0
  O  O8897  1  0.52678047  0.94061675  0.43442679  1.0
  O  O8898  1  0.61011380  0.10728341  0.43442679  1.0
  O  O8899  1  0.61011380  0.27395008  0.43442679  1.0
  O  O8900  1  0.61011380  0.44061675  0.43442679  1.0
  O  O8901  1  0.61011380  0.60728341  0.43442679  1.0
  O  O8902  1  0.61011380  0.77395008  0.43442679  1.0
  O  O8903  1  0.61011380  0.94061675  0.43442679  1.0
  O  O8904  1  0.69344713  0.10728341  0.43442679  1.0
  O  O8905  1  0.69344713  0.27395008  0.43442679  1.0
  O  O8906  1  0.69344713  0.44061675  0.43442679  1.0
  O  O8907  1  0.69344713  0.60728341  0.43442679  1.0
  O  O8908  1  0.69344713  0.77395008  0.43442679  1.0
  O  O8909  1  0.69344713  0.94061675  0.43442679  1.0
  O  O8910  1  0.77678047  0.10728341  0.43442679  1.0
  O  O8911  1  0.77678047  0.27395008  0.43442679  1.0
  O  O8912  1  0.77678047  0.44061675  0.43442679  1.0
  O  O8913  1  0.77678047  0.60728341  0.43442679  1.0
  O  O8914  1  0.77678047  0.77395008  0.43442679  1.0
  O  O8915  1  0.77678047  0.94061675  0.43442679  1.0
  O  O8916  1  0.86011380  0.10728341  0.43442679  1.0
  O  O8917  1  0.86011380  0.27395008  0.43442679  1.0
  O  O8918  1  0.86011380  0.44061675  0.43442679  1.0
  O  O8919  1  0.86011380  0.60728341  0.43442679  1.0
  O  O8920  1  0.86011380  0.77395008  0.43442679  1.0
  O  O8921  1  0.86011380  0.94061675  0.43442679  1.0
  O  O8922  1  0.94344713  0.10728341  0.43442679  1.0
  O  O8923  1  0.94344713  0.27395008  0.43442679  1.0
  O  O8924  1  0.94344713  0.44061675  0.43442679  1.0
  O  O8925  1  0.94344713  0.60728341  0.43442679  1.0
  O  O8926  1  0.94344713  0.77395008  0.43442679  1.0
  O  O8927  1  0.94344713  0.94061675  0.43442679  1.0
  O  O8928  1  0.00947060  0.14135577  0.36637798  1.0
  O  O8929  1  0.00947060  0.30802244  0.36637798  1.0
  O  O8930  1  0.00947060  0.47468911  0.36637798  1.0
  O  O8931  1  0.00947060  0.64135577  0.36637798  1.0
  O  O8932  1  0.00947060  0.80802244  0.36637798  1.0
  O  O8933  1  0.00947060  0.97468911  0.36637798  1.0
  O  O8934  1  0.09280394  0.14135577  0.36637798  1.0
  O  O8935  1  0.09280394  0.30802244  0.36637798  1.0
  O  O8936  1  0.09280394  0.47468911  0.36637798  1.0
  O  O8937  1  0.09280394  0.64135577  0.36637798  1.0
  O  O8938  1  0.09280394  0.80802244  0.36637798  1.0
  O  O8939  1  0.09280394  0.97468911  0.36637798  1.0
  O  O8940  1  0.17613727  0.14135577  0.36637798  1.0
  O  O8941  1  0.17613727  0.30802244  0.36637798  1.0
  O  O8942  1  0.17613727  0.47468911  0.36637798  1.0
  O  O8943  1  0.17613727  0.64135577  0.36637798  1.0
  O  O8944  1  0.17613727  0.80802244  0.36637798  1.0
  O  O8945  1  0.17613727  0.97468911  0.36637798  1.0
  O  O8946  1  0.25947060  0.14135577  0.36637798  1.0
  O  O8947  1  0.25947060  0.30802244  0.36637798  1.0
  O  O8948  1  0.25947060  0.47468911  0.36637798  1.0
  O  O8949  1  0.25947060  0.64135577  0.36637798  1.0
  O  O8950  1  0.25947060  0.80802244  0.36637798  1.0
  O  O8951  1  0.25947060  0.97468911  0.36637798  1.0
  O  O8952  1  0.34280394  0.14135577  0.36637798  1.0
  O  O8953  1  0.34280394  0.30802244  0.36637798  1.0
  O  O8954  1  0.34280394  0.47468911  0.36637798  1.0
  O  O8955  1  0.34280394  0.64135577  0.36637798  1.0
  O  O8956  1  0.34280394  0.80802244  0.36637798  1.0
  O  O8957  1  0.34280394  0.97468911  0.36637798  1.0
  O  O8958  1  0.42613727  0.14135577  0.36637798  1.0
  O  O8959  1  0.42613727  0.30802244  0.36637798  1.0
  O  O8960  1  0.42613727  0.47468911  0.36637798  1.0
  O  O8961  1  0.42613727  0.64135577  0.36637798  1.0
  O  O8962  1  0.42613727  0.80802244  0.36637798  1.0
  O  O8963  1  0.42613727  0.97468911  0.36637798  1.0
  O  O8964  1  0.50947060  0.14135577  0.36637798  1.0
  O  O8965  1  0.50947060  0.30802244  0.36637798  1.0
  O  O8966  1  0.50947060  0.47468911  0.36637798  1.0
  O  O8967  1  0.50947060  0.64135577  0.36637798  1.0
  O  O8968  1  0.50947060  0.80802244  0.36637798  1.0
  O  O8969  1  0.50947060  0.97468911  0.36637798  1.0
  O  O8970  1  0.59280394  0.14135577  0.36637798  1.0
  O  O8971  1  0.59280394  0.30802244  0.36637798  1.0
  O  O8972  1  0.59280394  0.47468911  0.36637798  1.0
  O  O8973  1  0.59280394  0.64135577  0.36637798  1.0
  O  O8974  1  0.59280394  0.80802244  0.36637798  1.0
  O  O8975  1  0.59280394  0.97468911  0.36637798  1.0
  O  O8976  1  0.67613727  0.14135577  0.36637798  1.0
  O  O8977  1  0.67613727  0.30802244  0.36637798  1.0
  O  O8978  1  0.67613727  0.47468911  0.36637798  1.0
  O  O8979  1  0.67613727  0.64135577  0.36637798  1.0
  O  O8980  1  0.67613727  0.80802244  0.36637798  1.0
  O  O8981  1  0.67613727  0.97468911  0.36637798  1.0
  O  O8982  1  0.75947060  0.14135577  0.36637798  1.0
  O  O8983  1  0.75947060  0.30802244  0.36637798  1.0
  O  O8984  1  0.75947060  0.47468911  0.36637798  1.0
  O  O8985  1  0.75947060  0.64135577  0.36637798  1.0
  O  O8986  1  0.75947060  0.80802244  0.36637798  1.0
  O  O8987  1  0.75947060  0.97468911  0.36637798  1.0
  O  O8988  1  0.84280394  0.14135577  0.36637798  1.0
  O  O8989  1  0.84280394  0.30802244  0.36637798  1.0
  O  O8990  1  0.84280394  0.47468911  0.36637798  1.0
  O  O8991  1  0.84280394  0.64135577  0.36637798  1.0
  O  O8992  1  0.84280394  0.80802244  0.36637798  1.0
  O  O8993  1  0.84280394  0.97468911  0.36637798  1.0
  O  O8994  1  0.92613727  0.14135577  0.36637798  1.0
  O  O8995  1  0.92613727  0.30802244  0.36637798  1.0
  O  O8996  1  0.92613727  0.47468911  0.36637798  1.0
  O  O8997  1  0.92613727  0.64135577  0.36637798  1.0
  O  O8998  1  0.92613727  0.80802244  0.36637798  1.0
  O  O8999  1  0.92613727  0.97468911  0.36637798  1.0
  O  O9000  1  0.06899441  0.12945101  0.43780655  1.0
  O  O9001  1  0.06899441  0.29611768  0.43780655  1.0
  O  O9002  1  0.06899441  0.46278435  0.43780655  1.0
  O  O9003  1  0.06899441  0.62945101  0.43780655  1.0
  O  O9004  1  0.06899441  0.79611768  0.43780655  1.0
  O  O9005  1  0.06899441  0.96278434  0.43780655  1.0
  O  O9006  1  0.15232775  0.12945101  0.43780655  1.0
  O  O9007  1  0.15232775  0.29611768  0.43780655  1.0
  O  O9008  1  0.15232775  0.46278435  0.43780655  1.0
  O  O9009  1  0.15232775  0.62945101  0.43780655  1.0
  O  O9010  1  0.15232775  0.79611768  0.43780655  1.0
  O  O9011  1  0.15232775  0.96278434  0.43780655  1.0
  O  O9012  1  0.23566108  0.12945101  0.43780655  1.0
  O  O9013  1  0.23566108  0.29611768  0.43780655  1.0
  O  O9014  1  0.23566108  0.46278435  0.43780655  1.0
  O  O9015  1  0.23566108  0.62945101  0.43780655  1.0
  O  O9016  1  0.23566108  0.79611768  0.43780655  1.0
  O  O9017  1  0.23566108  0.96278434  0.43780655  1.0
  O  O9018  1  0.31899441  0.12945101  0.43780655  1.0
  O  O9019  1  0.31899441  0.29611768  0.43780655  1.0
  O  O9020  1  0.31899441  0.46278435  0.43780655  1.0
  O  O9021  1  0.31899441  0.62945101  0.43780655  1.0
  O  O9022  1  0.31899441  0.79611768  0.43780655  1.0
  O  O9023  1  0.31899441  0.96278434  0.43780655  1.0
  O  O9024  1  0.40232775  0.12945101  0.43780655  1.0
  O  O9025  1  0.40232775  0.29611768  0.43780655  1.0
  O  O9026  1  0.40232775  0.46278435  0.43780655  1.0
  O  O9027  1  0.40232775  0.62945101  0.43780655  1.0
  O  O9028  1  0.40232775  0.79611768  0.43780655  1.0
  O  O9029  1  0.40232775  0.96278434  0.43780655  1.0
  O  O9030  1  0.48566108  0.12945101  0.43780655  1.0
  O  O9031  1  0.48566108  0.29611768  0.43780655  1.0
  O  O9032  1  0.48566108  0.46278435  0.43780655  1.0
  O  O9033  1  0.48566108  0.62945101  0.43780655  1.0
  O  O9034  1  0.48566108  0.79611768  0.43780655  1.0
  O  O9035  1  0.48566108  0.96278434  0.43780655  1.0
  O  O9036  1  0.56899441  0.12945101  0.43780655  1.0
  O  O9037  1  0.56899441  0.29611768  0.43780655  1.0
  O  O9038  1  0.56899441  0.46278435  0.43780655  1.0
  O  O9039  1  0.56899441  0.62945101  0.43780655  1.0
  O  O9040  1  0.56899441  0.79611768  0.43780655  1.0
  O  O9041  1  0.56899441  0.96278434  0.43780655  1.0
  O  O9042  1  0.65232775  0.12945101  0.43780655  1.0
  O  O9043  1  0.65232775  0.29611768  0.43780655  1.0
  O  O9044  1  0.65232775  0.46278435  0.43780655  1.0
  O  O9045  1  0.65232775  0.62945101  0.43780655  1.0
  O  O9046  1  0.65232775  0.79611768  0.43780655  1.0
  O  O9047  1  0.65232775  0.96278434  0.43780655  1.0
  O  O9048  1  0.73566108  0.12945101  0.43780655  1.0
  O  O9049  1  0.73566108  0.29611768  0.43780655  1.0
  O  O9050  1  0.73566108  0.46278435  0.43780655  1.0
  O  O9051  1  0.73566108  0.62945101  0.43780655  1.0
  O  O9052  1  0.73566108  0.79611768  0.43780655  1.0
  O  O9053  1  0.73566108  0.96278434  0.43780655  1.0
  O  O9054  1  0.81899441  0.12945101  0.43780655  1.0
  O  O9055  1  0.81899441  0.29611768  0.43780655  1.0
  O  O9056  1  0.81899441  0.46278435  0.43780655  1.0
  O  O9057  1  0.81899441  0.62945101  0.43780655  1.0
  O  O9058  1  0.81899441  0.79611768  0.43780655  1.0
  O  O9059  1  0.81899441  0.96278434  0.43780655  1.0
  O  O9060  1  0.90232775  0.12945101  0.43780655  1.0
  O  O9061  1  0.90232775  0.29611768  0.43780655  1.0
  O  O9062  1  0.90232775  0.46278435  0.43780655  1.0
  O  O9063  1  0.90232775  0.62945101  0.43780655  1.0
  O  O9064  1  0.90232775  0.79611768  0.43780655  1.0
  O  O9065  1  0.90232775  0.96278434  0.43780655  1.0
  O  O9066  1  0.98566108  0.12945101  0.43780655  1.0
  O  O9067  1  0.98566108  0.29611768  0.43780655  1.0
  O  O9068  1  0.98566108  0.46278435  0.43780655  1.0
  O  O9069  1  0.98566108  0.62945101  0.43780655  1.0
  O  O9070  1  0.98566108  0.79611768  0.43780655  1.0
  O  O9071  1  0.98566108  0.96278434  0.43780655  1.0
  O  O9072  1  0.08251422  0.06583118  0.38807702  1.0
  O  O9073  1  0.08251422  0.23249785  0.38807702  1.0
  O  O9074  1  0.08251422  0.39916451  0.38807702  1.0
  O  O9075  1  0.08251422  0.56583118  0.38807702  1.0
  O  O9076  1  0.08251422  0.73249785  0.38807702  1.0
  O  O9077  1  0.08251422  0.89916451  0.38807702  1.0
  O  O9078  1  0.16584755  0.06583118  0.38807702  1.0
  O  O9079  1  0.16584755  0.23249785  0.38807702  1.0
  O  O9080  1  0.16584755  0.39916451  0.38807702  1.0
  O  O9081  1  0.16584755  0.56583118  0.38807702  1.0
  O  O9082  1  0.16584755  0.73249785  0.38807702  1.0
  O  O9083  1  0.16584755  0.89916451  0.38807702  1.0
  O  O9084  1  0.24918089  0.06583118  0.38807702  1.0
  O  O9085  1  0.24918089  0.23249785  0.38807702  1.0
  O  O9086  1  0.24918089  0.39916451  0.38807702  1.0
  O  O9087  1  0.24918089  0.56583118  0.38807702  1.0
  O  O9088  1  0.24918089  0.73249785  0.38807702  1.0
  O  O9089  1  0.24918089  0.89916451  0.38807702  1.0
  O  O9090  1  0.33251422  0.06583118  0.38807702  1.0
  O  O9091  1  0.33251422  0.23249785  0.38807702  1.0
  O  O9092  1  0.33251422  0.39916451  0.38807702  1.0
  O  O9093  1  0.33251422  0.56583118  0.38807702  1.0
  O  O9094  1  0.33251422  0.73249785  0.38807702  1.0
  O  O9095  1  0.33251422  0.89916451  0.38807702  1.0
  O  O9096  1  0.41584755  0.06583118  0.38807702  1.0
  O  O9097  1  0.41584755  0.23249785  0.38807702  1.0
  O  O9098  1  0.41584755  0.39916451  0.38807702  1.0
  O  O9099  1  0.41584755  0.56583118  0.38807702  1.0
  O  O9100  1  0.41584755  0.73249785  0.38807702  1.0
  O  O9101  1  0.41584755  0.89916451  0.38807702  1.0
  O  O9102  1  0.49918089  0.06583118  0.38807702  1.0
  O  O9103  1  0.49918089  0.23249785  0.38807702  1.0
  O  O9104  1  0.49918089  0.39916451  0.38807702  1.0
  O  O9105  1  0.49918089  0.56583118  0.38807702  1.0
  O  O9106  1  0.49918089  0.73249785  0.38807702  1.0
  O  O9107  1  0.49918089  0.89916451  0.38807702  1.0
  O  O9108  1  0.58251422  0.06583118  0.38807702  1.0
  O  O9109  1  0.58251422  0.23249785  0.38807702  1.0
  O  O9110  1  0.58251422  0.39916451  0.38807702  1.0
  O  O9111  1  0.58251422  0.56583118  0.38807702  1.0
  O  O9112  1  0.58251422  0.73249785  0.38807702  1.0
  O  O9113  1  0.58251422  0.89916451  0.38807702  1.0
  O  O9114  1  0.66584755  0.06583118  0.38807702  1.0
  O  O9115  1  0.66584755  0.23249785  0.38807702  1.0
  O  O9116  1  0.66584755  0.39916451  0.38807702  1.0
  O  O9117  1  0.66584755  0.56583118  0.38807702  1.0
  O  O9118  1  0.66584755  0.73249785  0.38807702  1.0
  O  O9119  1  0.66584755  0.89916451  0.38807702  1.0
  O  O9120  1  0.74918089  0.06583118  0.38807702  1.0
  O  O9121  1  0.74918089  0.23249785  0.38807702  1.0
  O  O9122  1  0.74918089  0.39916451  0.38807702  1.0
  O  O9123  1  0.74918089  0.56583118  0.38807702  1.0
  O  O9124  1  0.74918089  0.73249785  0.38807702  1.0
  O  O9125  1  0.74918089  0.89916451  0.38807702  1.0
  O  O9126  1  0.83251422  0.06583118  0.38807702  1.0
  O  O9127  1  0.83251422  0.23249785  0.38807702  1.0
  O  O9128  1  0.83251422  0.39916451  0.38807702  1.0
  O  O9129  1  0.83251422  0.56583118  0.38807702  1.0
  O  O9130  1  0.83251422  0.73249785  0.38807702  1.0
  O  O9131  1  0.83251422  0.89916451  0.38807702  1.0
  O  O9132  1  0.91584755  0.06583118  0.38807702  1.0
  O  O9133  1  0.91584755  0.23249785  0.38807702  1.0
  O  O9134  1  0.91584755  0.39916451  0.38807702  1.0
  O  O9135  1  0.91584755  0.56583118  0.38807702  1.0
  O  O9136  1  0.91584755  0.73249785  0.38807702  1.0
  O  O9137  1  0.91584755  0.89916451  0.38807702  1.0
  O  O9138  1  0.99918089  0.06583118  0.38807702  1.0
  O  O9139  1  0.99918089  0.23249785  0.38807702  1.0
  O  O9140  1  0.99918089  0.39916451  0.38807702  1.0
  O  O9141  1  0.99918089  0.56583118  0.38807702  1.0
  O  O9142  1  0.99918089  0.73249785  0.38807702  1.0
  O  O9143  1  0.99918089  0.89916451  0.38807702  1.0
  O  O9144  1  0.05870469  0.05392642  0.45950559  1.0
  O  O9145  1  0.05870469  0.22059308  0.45950559  1.0
  O  O9146  1  0.05870469  0.38725975  0.45950559  1.0
  O  O9147  1  0.05870469  0.55392642  0.45950559  1.0
  O  O9148  1  0.05870469  0.72059308  0.45950559  1.0
  O  O9149  1  0.05870469  0.88725975  0.45950559  1.0
  O  O9150  1  0.14203803  0.05392642  0.45950559  1.0
  O  O9151  1  0.14203803  0.22059308  0.45950559  1.0
  O  O9152  1  0.14203803  0.38725975  0.45950559  1.0
  O  O9153  1  0.14203803  0.55392642  0.45950559  1.0
  O  O9154  1  0.14203803  0.72059308  0.45950559  1.0
  O  O9155  1  0.14203803  0.88725975  0.45950559  1.0
  O  O9156  1  0.22537136  0.05392642  0.45950559  1.0
  O  O9157  1  0.22537136  0.22059308  0.45950559  1.0
  O  O9158  1  0.22537136  0.38725975  0.45950559  1.0
  O  O9159  1  0.22537136  0.55392642  0.45950559  1.0
  O  O9160  1  0.22537136  0.72059308  0.45950559  1.0
  O  O9161  1  0.22537136  0.88725975  0.45950559  1.0
  O  O9162  1  0.30870469  0.05392642  0.45950559  1.0
  O  O9163  1  0.30870469  0.22059308  0.45950559  1.0
  O  O9164  1  0.30870469  0.38725975  0.45950559  1.0
  O  O9165  1  0.30870469  0.55392642  0.45950559  1.0
  O  O9166  1  0.30870469  0.72059308  0.45950559  1.0
  O  O9167  1  0.30870469  0.88725975  0.45950559  1.0
  O  O9168  1  0.39203803  0.05392642  0.45950559  1.0
  O  O9169  1  0.39203803  0.22059308  0.45950559  1.0
  O  O9170  1  0.39203803  0.38725975  0.45950559  1.0
  O  O9171  1  0.39203803  0.55392642  0.45950559  1.0
  O  O9172  1  0.39203803  0.72059308  0.45950559  1.0
  O  O9173  1  0.39203803  0.88725975  0.45950559  1.0
  O  O9174  1  0.47537136  0.05392642  0.45950559  1.0
  O  O9175  1  0.47537136  0.22059308  0.45950559  1.0
  O  O9176  1  0.47537136  0.38725975  0.45950559  1.0
  O  O9177  1  0.47537136  0.55392642  0.45950559  1.0
  O  O9178  1  0.47537136  0.72059308  0.45950559  1.0
  O  O9179  1  0.47537136  0.88725975  0.45950559  1.0
  O  O9180  1  0.55870469  0.05392642  0.45950559  1.0
  O  O9181  1  0.55870469  0.22059308  0.45950559  1.0
  O  O9182  1  0.55870469  0.38725975  0.45950559  1.0
  O  O9183  1  0.55870469  0.55392642  0.45950559  1.0
  O  O9184  1  0.55870469  0.72059308  0.45950559  1.0
  O  O9185  1  0.55870469  0.88725975  0.45950559  1.0
  O  O9186  1  0.64203803  0.05392642  0.45950559  1.0
  O  O9187  1  0.64203803  0.22059308  0.45950559  1.0
  O  O9188  1  0.64203803  0.38725975  0.45950559  1.0
  O  O9189  1  0.64203803  0.55392642  0.45950559  1.0
  O  O9190  1  0.64203803  0.72059308  0.45950559  1.0
  O  O9191  1  0.64203803  0.88725975  0.45950559  1.0
  O  O9192  1  0.72537136  0.05392642  0.45950559  1.0
  O  O9193  1  0.72537136  0.22059308  0.45950559  1.0
  O  O9194  1  0.72537136  0.38725975  0.45950559  1.0
  O  O9195  1  0.72537136  0.55392642  0.45950559  1.0
  O  O9196  1  0.72537136  0.72059308  0.45950559  1.0
  O  O9197  1  0.72537136  0.88725975  0.45950559  1.0
  O  O9198  1  0.80870469  0.05392642  0.45950559  1.0
  O  O9199  1  0.80870469  0.22059308  0.45950559  1.0
  O  O9200  1  0.80870469  0.38725975  0.45950559  1.0
  O  O9201  1  0.80870469  0.55392642  0.45950559  1.0
  O  O9202  1  0.80870469  0.72059308  0.45950559  1.0
  O  O9203  1  0.80870469  0.88725975  0.45950559  1.0
  O  O9204  1  0.89203803  0.05392642  0.45950559  1.0
  O  O9205  1  0.89203803  0.22059308  0.45950559  1.0
  O  O9206  1  0.89203803  0.38725975  0.45950559  1.0
  O  O9207  1  0.89203803  0.55392642  0.45950559  1.0
  O  O9208  1  0.89203803  0.72059308  0.45950559  1.0
  O  O9209  1  0.89203803  0.88725975  0.45950559  1.0
  O  O9210  1  0.97537136  0.05392642  0.45950559  1.0
  O  O9211  1  0.97537136  0.22059308  0.45950559  1.0
  O  O9212  1  0.97537136  0.38725975  0.45950559  1.0
  O  O9213  1  0.97537136  0.55392642  0.45950559  1.0
  O  O9214  1  0.97537136  0.72059308  0.45950559  1.0
  O  O9215  1  0.97537136  0.88725975  0.45950559  1.0
  O  O9216  1  0.00340906  0.04839314  0.49532724  1.0
  O  O9217  1  0.00340906  0.21505980  0.49532724  1.0
  O  O9218  1  0.00340906  0.38172647  0.49532724  1.0
  O  O9219  1  0.00340906  0.54839314  0.49532724  1.0
  O  O9220  1  0.00340906  0.71505980  0.49532724  1.0
  O  O9221  1  0.00340906  0.88172647  0.49532724  1.0
  O  O9222  1  0.08674239  0.04839314  0.49532724  1.0
  O  O9223  1  0.08674239  0.21505980  0.49532724  1.0
  O  O9224  1  0.08674239  0.38172647  0.49532724  1.0
  O  O9225  1  0.08674239  0.54839314  0.49532724  1.0
  O  O9226  1  0.08674239  0.71505980  0.49532724  1.0
  O  O9227  1  0.08674239  0.88172647  0.49532724  1.0
  O  O9228  1  0.17007573  0.04839314  0.49532724  1.0
  O  O9229  1  0.17007573  0.21505980  0.49532724  1.0
  O  O9230  1  0.17007573  0.38172647  0.49532724  1.0
  O  O9231  1  0.17007573  0.54839314  0.49532724  1.0
  O  O9232  1  0.17007573  0.71505980  0.49532724  1.0
  O  O9233  1  0.17007573  0.88172647  0.49532724  1.0
  O  O9234  1  0.25340906  0.04839314  0.49532724  1.0
  O  O9235  1  0.25340906  0.21505980  0.49532724  1.0
  O  O9236  1  0.25340906  0.38172647  0.49532724  1.0
  O  O9237  1  0.25340906  0.54839314  0.49532724  1.0
  O  O9238  1  0.25340906  0.71505980  0.49532724  1.0
  O  O9239  1  0.25340906  0.88172647  0.49532724  1.0
  O  O9240  1  0.33674239  0.04839314  0.49532724  1.0
  O  O9241  1  0.33674239  0.21505980  0.49532724  1.0
  O  O9242  1  0.33674239  0.38172647  0.49532724  1.0
  O  O9243  1  0.33674239  0.54839314  0.49532724  1.0
  O  O9244  1  0.33674239  0.71505980  0.49532724  1.0
  O  O9245  1  0.33674239  0.88172647  0.49532724  1.0
  O  O9246  1  0.42007573  0.04839314  0.49532724  1.0
  O  O9247  1  0.42007573  0.21505980  0.49532724  1.0
  O  O9248  1  0.42007573  0.38172647  0.49532724  1.0
  O  O9249  1  0.42007573  0.54839314  0.49532724  1.0
  O  O9250  1  0.42007573  0.71505980  0.49532724  1.0
  O  O9251  1  0.42007573  0.88172647  0.49532724  1.0
  O  O9252  1  0.50340906  0.04839314  0.49532724  1.0
  O  O9253  1  0.50340906  0.21505980  0.49532724  1.0
  O  O9254  1  0.50340906  0.38172647  0.49532724  1.0
  O  O9255  1  0.50340906  0.54839314  0.49532724  1.0
  O  O9256  1  0.50340906  0.71505980  0.49532724  1.0
  O  O9257  1  0.50340906  0.88172647  0.49532724  1.0
  O  O9258  1  0.58674239  0.04839314  0.49532724  1.0
  O  O9259  1  0.58674239  0.21505980  0.49532724  1.0
  O  O9260  1  0.58674239  0.38172647  0.49532724  1.0
  O  O9261  1  0.58674239  0.54839314  0.49532724  1.0
  O  O9262  1  0.58674239  0.71505980  0.49532724  1.0
  O  O9263  1  0.58674239  0.88172647  0.49532724  1.0
  O  O9264  1  0.67007573  0.04839314  0.49532724  1.0
  O  O9265  1  0.67007573  0.21505980  0.49532724  1.0
  O  O9266  1  0.67007573  0.38172647  0.49532724  1.0
  O  O9267  1  0.67007573  0.54839314  0.49532724  1.0
  O  O9268  1  0.67007573  0.71505980  0.49532724  1.0
  O  O9269  1  0.67007573  0.88172647  0.49532724  1.0
  O  O9270  1  0.75340906  0.04839314  0.49532724  1.0
  O  O9271  1  0.75340906  0.21505980  0.49532724  1.0
  O  O9272  1  0.75340906  0.38172647  0.49532724  1.0
  O  O9273  1  0.75340906  0.54839314  0.49532724  1.0
  O  O9274  1  0.75340906  0.71505980  0.49532724  1.0
  O  O9275  1  0.75340906  0.88172647  0.49532724  1.0
  O  O9276  1  0.83674239  0.04839314  0.49532724  1.0
  O  O9277  1  0.83674239  0.21505980  0.49532724  1.0
  O  O9278  1  0.83674239  0.38172647  0.49532724  1.0
  O  O9279  1  0.83674239  0.54839314  0.49532724  1.0
  O  O9280  1  0.83674239  0.71505980  0.49532724  1.0
  O  O9281  1  0.83674239  0.88172647  0.49532724  1.0
  O  O9282  1  0.92007573  0.04839314  0.49532724  1.0
  O  O9283  1  0.92007573  0.21505980  0.49532724  1.0
  O  O9284  1  0.92007573  0.38172647  0.49532724  1.0
  O  O9285  1  0.92007573  0.54839314  0.49532724  1.0
  O  O9286  1  0.92007573  0.71505980  0.49532724  1.0
  O  O9287  1  0.92007573  0.88172647  0.49532724  1.0
  O  O9288  1  0.02721858  0.06029790  0.42389867  1.0
  O  O9289  1  0.02721858  0.22696456  0.42389867  1.0
  O  O9290  1  0.02721858  0.39363123  0.42389867  1.0
  O  O9291  1  0.02721858  0.56029790  0.42389867  1.0
  O  O9292  1  0.02721858  0.72696456  0.42389867  1.0
  O  O9293  1  0.02721858  0.89363123  0.42389867  1.0
  O  O9294  1  0.11055192  0.06029790  0.42389867  1.0
  O  O9295  1  0.11055192  0.22696456  0.42389867  1.0
  O  O9296  1  0.11055192  0.39363123  0.42389867  1.0
  O  O9297  1  0.11055192  0.56029790  0.42389867  1.0
  O  O9298  1  0.11055192  0.72696456  0.42389867  1.0
  O  O9299  1  0.11055192  0.89363123  0.42389867  1.0
  O  O9300  1  0.19388525  0.06029790  0.42389867  1.0
  O  O9301  1  0.19388525  0.22696456  0.42389867  1.0
  O  O9302  1  0.19388525  0.39363123  0.42389867  1.0
  O  O9303  1  0.19388525  0.56029790  0.42389867  1.0
  O  O9304  1  0.19388525  0.72696456  0.42389867  1.0
  O  O9305  1  0.19388525  0.89363123  0.42389867  1.0
  O  O9306  1  0.27721858  0.06029790  0.42389867  1.0
  O  O9307  1  0.27721858  0.22696456  0.42389867  1.0
  O  O9308  1  0.27721858  0.39363123  0.42389867  1.0
  O  O9309  1  0.27721858  0.56029790  0.42389867  1.0
  O  O9310  1  0.27721858  0.72696456  0.42389867  1.0
  O  O9311  1  0.27721858  0.89363123  0.42389867  1.0
  O  O9312  1  0.36055192  0.06029790  0.42389867  1.0
  O  O9313  1  0.36055192  0.22696456  0.42389867  1.0
  O  O9314  1  0.36055192  0.39363123  0.42389867  1.0
  O  O9315  1  0.36055192  0.56029790  0.42389867  1.0
  O  O9316  1  0.36055192  0.72696456  0.42389867  1.0
  O  O9317  1  0.36055192  0.89363123  0.42389867  1.0
  O  O9318  1  0.44388525  0.06029790  0.42389867  1.0
  O  O9319  1  0.44388525  0.22696456  0.42389867  1.0
  O  O9320  1  0.44388525  0.39363123  0.42389867  1.0
  O  O9321  1  0.44388525  0.56029790  0.42389867  1.0
  O  O9322  1  0.44388525  0.72696456  0.42389867  1.0
  O  O9323  1  0.44388525  0.89363123  0.42389867  1.0
  O  O9324  1  0.52721858  0.06029790  0.42389867  1.0
  O  O9325  1  0.52721858  0.22696456  0.42389867  1.0
  O  O9326  1  0.52721858  0.39363123  0.42389867  1.0
  O  O9327  1  0.52721858  0.56029790  0.42389867  1.0
  O  O9328  1  0.52721858  0.72696456  0.42389867  1.0
  O  O9329  1  0.52721858  0.89363123  0.42389867  1.0
  O  O9330  1  0.61055192  0.06029790  0.42389867  1.0
  O  O9331  1  0.61055192  0.22696456  0.42389867  1.0
  O  O9332  1  0.61055192  0.39363123  0.42389867  1.0
  O  O9333  1  0.61055192  0.56029790  0.42389867  1.0
  O  O9334  1  0.61055192  0.72696456  0.42389867  1.0
  O  O9335  1  0.61055192  0.89363123  0.42389867  1.0
  O  O9336  1  0.69388525  0.06029790  0.42389867  1.0
  O  O9337  1  0.69388525  0.22696456  0.42389867  1.0
  O  O9338  1  0.69388525  0.39363123  0.42389867  1.0
  O  O9339  1  0.69388525  0.56029790  0.42389867  1.0
  O  O9340  1  0.69388525  0.72696456  0.42389867  1.0
  O  O9341  1  0.69388525  0.89363123  0.42389867  1.0
  O  O9342  1  0.77721858  0.06029790  0.42389867  1.0
  O  O9343  1  0.77721858  0.22696456  0.42389867  1.0
  O  O9344  1  0.77721858  0.39363123  0.42389867  1.0
  O  O9345  1  0.77721858  0.56029790  0.42389867  1.0
  O  O9346  1  0.77721858  0.72696456  0.42389867  1.0
  O  O9347  1  0.77721858  0.89363123  0.42389867  1.0
  O  O9348  1  0.86055192  0.06029790  0.42389867  1.0
  O  O9349  1  0.86055192  0.22696456  0.42389867  1.0
  O  O9350  1  0.86055192  0.39363123  0.42389867  1.0
  O  O9351  1  0.86055192  0.56029790  0.42389867  1.0
  O  O9352  1  0.86055192  0.72696456  0.42389867  1.0
  O  O9353  1  0.86055192  0.89363123  0.42389867  1.0
  O  O9354  1  0.94388525  0.06029790  0.42389867  1.0
  O  O9355  1  0.94388525  0.22696456  0.42389867  1.0
  O  O9356  1  0.94388525  0.39363123  0.42389867  1.0
  O  O9357  1  0.94388525  0.56029790  0.42389867  1.0
  O  O9358  1  0.94388525  0.72696456  0.42389867  1.0
  O  O9359  1  0.94388525  0.89363123  0.42389867  1.0
  O  O9360  1  0.07916439  0.11177229  0.39645438  1.0
  O  O9361  1  0.07916439  0.27843896  0.39645438  1.0
  O  O9362  1  0.07916439  0.44510562  0.39645438  1.0
  O  O9363  1  0.07916439  0.61177229  0.39645438  1.0
  O  O9364  1  0.07916439  0.77843896  0.39645438  1.0
  O  O9365  1  0.07916439  0.94510562  0.39645438  1.0
  O  O9366  1  0.16249772  0.11177229  0.39645438  1.0
  O  O9367  1  0.16249772  0.27843896  0.39645438  1.0
  O  O9368  1  0.16249772  0.44510562  0.39645438  1.0
  O  O9369  1  0.16249772  0.61177229  0.39645438  1.0
  O  O9370  1  0.16249772  0.77843896  0.39645438  1.0
  O  O9371  1  0.16249772  0.94510562  0.39645438  1.0
  O  O9372  1  0.24583106  0.11177229  0.39645438  1.0
  O  O9373  1  0.24583106  0.27843896  0.39645438  1.0
  O  O9374  1  0.24583106  0.44510562  0.39645438  1.0
  O  O9375  1  0.24583106  0.61177229  0.39645438  1.0
  O  O9376  1  0.24583106  0.77843896  0.39645438  1.0
  O  O9377  1  0.24583106  0.94510562  0.39645438  1.0
  O  O9378  1  0.32916439  0.11177229  0.39645438  1.0
  O  O9379  1  0.32916439  0.27843896  0.39645438  1.0
  O  O9380  1  0.32916439  0.44510562  0.39645438  1.0
  O  O9381  1  0.32916439  0.61177229  0.39645438  1.0
  O  O9382  1  0.32916439  0.77843896  0.39645438  1.0
  O  O9383  1  0.32916439  0.94510562  0.39645438  1.0
  O  O9384  1  0.41249772  0.11177229  0.39645438  1.0
  O  O9385  1  0.41249772  0.27843896  0.39645438  1.0
  O  O9386  1  0.41249772  0.44510562  0.39645438  1.0
  O  O9387  1  0.41249772  0.61177229  0.39645438  1.0
  O  O9388  1  0.41249772  0.77843896  0.39645438  1.0
  O  O9389  1  0.41249772  0.94510562  0.39645438  1.0
  O  O9390  1  0.49583106  0.11177229  0.39645438  1.0
  O  O9391  1  0.49583106  0.27843896  0.39645438  1.0
  O  O9392  1  0.49583106  0.44510562  0.39645438  1.0
  O  O9393  1  0.49583106  0.61177229  0.39645438  1.0
  O  O9394  1  0.49583106  0.77843896  0.39645438  1.0
  O  O9395  1  0.49583106  0.94510562  0.39645438  1.0
  O  O9396  1  0.57916439  0.11177229  0.39645438  1.0
  O  O9397  1  0.57916439  0.27843896  0.39645438  1.0
  O  O9398  1  0.57916439  0.44510562  0.39645438  1.0
  O  O9399  1  0.57916439  0.61177229  0.39645438  1.0
  O  O9400  1  0.57916439  0.77843896  0.39645438  1.0
  O  O9401  1  0.57916439  0.94510562  0.39645438  1.0
  O  O9402  1  0.66249772  0.11177229  0.39645438  1.0
  O  O9403  1  0.66249772  0.27843896  0.39645438  1.0
  O  O9404  1  0.66249772  0.44510562  0.39645438  1.0
  O  O9405  1  0.66249772  0.61177229  0.39645438  1.0
  O  O9406  1  0.66249772  0.77843896  0.39645438  1.0
  O  O9407  1  0.66249772  0.94510562  0.39645438  1.0
  O  O9408  1  0.74583106  0.11177229  0.39645438  1.0
  O  O9409  1  0.74583106  0.27843896  0.39645438  1.0
  O  O9410  1  0.74583106  0.44510562  0.39645438  1.0
  O  O9411  1  0.74583106  0.61177229  0.39645438  1.0
  O  O9412  1  0.74583106  0.77843896  0.39645438  1.0
  O  O9413  1  0.74583106  0.94510562  0.39645438  1.0
  O  O9414  1  0.82916439  0.11177229  0.39645438  1.0
  O  O9415  1  0.82916439  0.27843896  0.39645438  1.0
  O  O9416  1  0.82916439  0.44510562  0.39645438  1.0
  O  O9417  1  0.82916439  0.61177229  0.39645438  1.0
  O  O9418  1  0.82916439  0.77843896  0.39645438  1.0
  O  O9419  1  0.82916439  0.94510562  0.39645438  1.0
  O  O9420  1  0.91249772  0.11177229  0.39645438  1.0
  O  O9421  1  0.91249772  0.27843896  0.39645438  1.0
  O  O9422  1  0.91249772  0.44510562  0.39645438  1.0
  O  O9423  1  0.91249772  0.61177229  0.39645438  1.0
  O  O9424  1  0.91249772  0.77843896  0.39645438  1.0
  O  O9425  1  0.91249772  0.94510562  0.39645438  1.0
  O  O9426  1  0.99583106  0.11177229  0.39645438  1.0
  O  O9427  1  0.99583106  0.27843896  0.39645438  1.0
  O  O9428  1  0.99583106  0.44510562  0.39645438  1.0
  O  O9429  1  0.99583106  0.61177229  0.39645438  1.0
  O  O9430  1  0.99583106  0.77843896  0.39645438  1.0
  O  O9431  1  0.99583106  0.94510562  0.39645438  1.0
  O  O9432  1  0.05535487  0.09986753  0.46788295  1.0
  O  O9433  1  0.05535487  0.26653420  0.46788295  1.0
  O  O9434  1  0.05535487  0.43320086  0.46788295  1.0
  O  O9435  1  0.05535487  0.59986753  0.46788295  1.0
  O  O9436  1  0.05535487  0.76653420  0.46788295  1.0
  O  O9437  1  0.05535487  0.93320086  0.46788295  1.0
  O  O9438  1  0.13868820  0.09986753  0.46788295  1.0
  O  O9439  1  0.13868820  0.26653420  0.46788295  1.0
  O  O9440  1  0.13868820  0.43320086  0.46788295  1.0
  O  O9441  1  0.13868820  0.59986753  0.46788295  1.0
  O  O9442  1  0.13868820  0.76653420  0.46788295  1.0
  O  O9443  1  0.13868820  0.93320086  0.46788295  1.0
  O  O9444  1  0.22202153  0.09986753  0.46788295  1.0
  O  O9445  1  0.22202153  0.26653420  0.46788295  1.0
  O  O9446  1  0.22202153  0.43320086  0.46788295  1.0
  O  O9447  1  0.22202153  0.59986753  0.46788295  1.0
  O  O9448  1  0.22202153  0.76653420  0.46788295  1.0
  O  O9449  1  0.22202153  0.93320086  0.46788295  1.0
  O  O9450  1  0.30535487  0.09986753  0.46788295  1.0
  O  O9451  1  0.30535487  0.26653420  0.46788295  1.0
  O  O9452  1  0.30535487  0.43320086  0.46788295  1.0
  O  O9453  1  0.30535487  0.59986753  0.46788295  1.0
  O  O9454  1  0.30535487  0.76653420  0.46788295  1.0
  O  O9455  1  0.30535487  0.93320086  0.46788295  1.0
  O  O9456  1  0.38868820  0.09986753  0.46788295  1.0
  O  O9457  1  0.38868820  0.26653420  0.46788295  1.0
  O  O9458  1  0.38868820  0.43320086  0.46788295  1.0
  O  O9459  1  0.38868820  0.59986753  0.46788295  1.0
  O  O9460  1  0.38868820  0.76653420  0.46788295  1.0
  O  O9461  1  0.38868820  0.93320086  0.46788295  1.0
  O  O9462  1  0.47202153  0.09986753  0.46788295  1.0
  O  O9463  1  0.47202153  0.26653420  0.46788295  1.0
  O  O9464  1  0.47202153  0.43320086  0.46788295  1.0
  O  O9465  1  0.47202153  0.59986753  0.46788295  1.0
  O  O9466  1  0.47202153  0.76653420  0.46788295  1.0
  O  O9467  1  0.47202153  0.93320086  0.46788295  1.0
  O  O9468  1  0.55535487  0.09986753  0.46788295  1.0
  O  O9469  1  0.55535487  0.26653420  0.46788295  1.0
  O  O9470  1  0.55535487  0.43320086  0.46788295  1.0
  O  O9471  1  0.55535487  0.59986753  0.46788295  1.0
  O  O9472  1  0.55535487  0.76653420  0.46788295  1.0
  O  O9473  1  0.55535487  0.93320086  0.46788295  1.0
  O  O9474  1  0.63868820  0.09986753  0.46788295  1.0
  O  O9475  1  0.63868820  0.26653420  0.46788295  1.0
  O  O9476  1  0.63868820  0.43320086  0.46788295  1.0
  O  O9477  1  0.63868820  0.59986753  0.46788295  1.0
  O  O9478  1  0.63868820  0.76653420  0.46788295  1.0
  O  O9479  1  0.63868820  0.93320086  0.46788295  1.0
  O  O9480  1  0.72202153  0.09986753  0.46788295  1.0
  O  O9481  1  0.72202153  0.26653420  0.46788295  1.0
  O  O9482  1  0.72202153  0.43320086  0.46788295  1.0
  O  O9483  1  0.72202153  0.59986753  0.46788295  1.0
  O  O9484  1  0.72202153  0.76653420  0.46788295  1.0
  O  O9485  1  0.72202153  0.93320086  0.46788295  1.0
  O  O9486  1  0.80535487  0.09986753  0.46788295  1.0
  O  O9487  1  0.80535487  0.26653420  0.46788295  1.0
  O  O9488  1  0.80535487  0.43320086  0.46788295  1.0
  O  O9489  1  0.80535487  0.59986753  0.46788295  1.0
  O  O9490  1  0.80535487  0.76653420  0.46788295  1.0
  O  O9491  1  0.80535487  0.93320086  0.46788295  1.0
  O  O9492  1  0.88868820  0.09986753  0.46788295  1.0
  O  O9493  1  0.88868820  0.26653420  0.46788295  1.0
  O  O9494  1  0.88868820  0.43320086  0.46788295  1.0
  O  O9495  1  0.88868820  0.59986753  0.46788295  1.0
  O  O9496  1  0.88868820  0.76653420  0.46788295  1.0
  O  O9497  1  0.88868820  0.93320086  0.46788295  1.0
  O  O9498  1  0.97202153  0.09986753  0.46788295  1.0
  O  O9499  1  0.97202153  0.26653420  0.46788295  1.0
  O  O9500  1  0.97202153  0.43320086  0.46788295  1.0
  O  O9501  1  0.97202153  0.59986753  0.46788295  1.0
  O  O9502  1  0.97202153  0.76653420  0.46788295  1.0
  O  O9503  1  0.97202153  0.93320086  0.46788295  1.0
  O  O9504  1  0.04568397  0.07064328  0.49871373  1.0
  O  O9505  1  0.04568397  0.23730995  0.49871373  1.0
  O  O9506  1  0.04568397  0.40397661  0.49871373  1.0
  O  O9507  1  0.04568397  0.57064328  0.49871373  1.0
  O  O9508  1  0.04568397  0.73730995  0.49871373  1.0
  O  O9509  1  0.04568397  0.90397661  0.49871373  1.0
  O  O9510  1  0.12901730  0.07064328  0.49871373  1.0
  O  O9511  1  0.12901730  0.23730995  0.49871373  1.0
  O  O9512  1  0.12901730  0.40397661  0.49871373  1.0
  O  O9513  1  0.12901730  0.57064328  0.49871373  1.0
  O  O9514  1  0.12901730  0.73730995  0.49871373  1.0
  O  O9515  1  0.12901730  0.90397661  0.49871373  1.0
  O  O9516  1  0.21235064  0.07064328  0.49871373  1.0
  O  O9517  1  0.21235064  0.23730995  0.49871373  1.0
  O  O9518  1  0.21235064  0.40397661  0.49871373  1.0
  O  O9519  1  0.21235064  0.57064328  0.49871373  1.0
  O  O9520  1  0.21235064  0.73730995  0.49871373  1.0
  O  O9521  1  0.21235064  0.90397661  0.49871373  1.0
  O  O9522  1  0.29568397  0.07064328  0.49871373  1.0
  O  O9523  1  0.29568397  0.23730995  0.49871373  1.0
  O  O9524  1  0.29568397  0.40397661  0.49871373  1.0
  O  O9525  1  0.29568397  0.57064328  0.49871373  1.0
  O  O9526  1  0.29568397  0.73730995  0.49871373  1.0
  O  O9527  1  0.29568397  0.90397661  0.49871373  1.0
  O  O9528  1  0.37901730  0.07064328  0.49871373  1.0
  O  O9529  1  0.37901730  0.23730995  0.49871373  1.0
  O  O9530  1  0.37901730  0.40397661  0.49871373  1.0
  O  O9531  1  0.37901730  0.57064328  0.49871373  1.0
  O  O9532  1  0.37901730  0.73730995  0.49871373  1.0
  O  O9533  1  0.37901730  0.90397661  0.49871373  1.0
  O  O9534  1  0.46235064  0.07064328  0.49871373  1.0
  O  O9535  1  0.46235064  0.23730995  0.49871373  1.0
  O  O9536  1  0.46235064  0.40397661  0.49871373  1.0
  O  O9537  1  0.46235064  0.57064328  0.49871373  1.0
  O  O9538  1  0.46235064  0.73730995  0.49871373  1.0
  O  O9539  1  0.46235064  0.90397661  0.49871373  1.0
  O  O9540  1  0.54568397  0.07064328  0.49871373  1.0
  O  O9541  1  0.54568397  0.23730995  0.49871373  1.0
  O  O9542  1  0.54568397  0.40397661  0.49871373  1.0
  O  O9543  1  0.54568397  0.57064328  0.49871373  1.0
  O  O9544  1  0.54568397  0.73730995  0.49871373  1.0
  O  O9545  1  0.54568397  0.90397661  0.49871373  1.0
  O  O9546  1  0.62901730  0.07064328  0.49871373  1.0
  O  O9547  1  0.62901730  0.23730995  0.49871373  1.0
  O  O9548  1  0.62901730  0.40397661  0.49871373  1.0
  O  O9549  1  0.62901730  0.57064328  0.49871373  1.0
  O  O9550  1  0.62901730  0.73730995  0.49871373  1.0
  O  O9551  1  0.62901730  0.90397661  0.49871373  1.0
  O  O9552  1  0.71235064  0.07064328  0.49871373  1.0
  O  O9553  1  0.71235064  0.23730995  0.49871373  1.0
  O  O9554  1  0.71235064  0.40397661  0.49871373  1.0
  O  O9555  1  0.71235064  0.57064328  0.49871373  1.0
  O  O9556  1  0.71235064  0.73730995  0.49871373  1.0
  O  O9557  1  0.71235064  0.90397661  0.49871373  1.0
  O  O9558  1  0.79568397  0.07064328  0.49871373  1.0
  O  O9559  1  0.79568397  0.23730995  0.49871373  1.0
  O  O9560  1  0.79568397  0.40397661  0.49871373  1.0
  O  O9561  1  0.79568397  0.57064328  0.49871373  1.0
  O  O9562  1  0.79568397  0.73730995  0.49871373  1.0
  O  O9563  1  0.79568397  0.90397661  0.49871373  1.0
  O  O9564  1  0.87901730  0.07064328  0.49871373  1.0
  O  O9565  1  0.87901730  0.23730995  0.49871373  1.0
  O  O9566  1  0.87901730  0.40397661  0.49871373  1.0
  O  O9567  1  0.87901730  0.57064328  0.49871373  1.0
  O  O9568  1  0.87901730  0.73730995  0.49871373  1.0
  O  O9569  1  0.87901730  0.90397661  0.49871373  1.0
  O  O9570  1  0.96235064  0.07064328  0.49871373  1.0
  O  O9571  1  0.96235064  0.23730995  0.49871373  1.0
  O  O9572  1  0.96235064  0.40397661  0.49871373  1.0
  O  O9573  1  0.96235064  0.57064328  0.49871373  1.0
  O  O9574  1  0.96235064  0.73730995  0.49871373  1.0
  O  O9575  1  0.96235064  0.90397661  0.49871373  1.0
  O  O9576  1  0.06949349  0.08254804  0.42728516  1.0
  O  O9577  1  0.06949349  0.24921471  0.42728516  1.0
  O  O9578  1  0.06949349  0.41588137  0.42728516  1.0
  O  O9579  1  0.06949349  0.58254804  0.42728516  1.0
  O  O9580  1  0.06949349  0.74921471  0.42728516  1.0
  O  O9581  1  0.06949349  0.91588137  0.42728516  1.0
  O  O9582  1  0.15282683  0.08254804  0.42728516  1.0
  O  O9583  1  0.15282683  0.24921471  0.42728516  1.0
  O  O9584  1  0.15282683  0.41588137  0.42728516  1.0
  O  O9585  1  0.15282683  0.58254804  0.42728516  1.0
  O  O9586  1  0.15282683  0.74921471  0.42728516  1.0
  O  O9587  1  0.15282683  0.91588137  0.42728516  1.0
  O  O9588  1  0.23616016  0.08254804  0.42728516  1.0
  O  O9589  1  0.23616016  0.24921471  0.42728516  1.0
  O  O9590  1  0.23616016  0.41588137  0.42728516  1.0
  O  O9591  1  0.23616016  0.58254804  0.42728516  1.0
  O  O9592  1  0.23616016  0.74921471  0.42728516  1.0
  O  O9593  1  0.23616016  0.91588137  0.42728516  1.0
  O  O9594  1  0.31949349  0.08254804  0.42728516  1.0
  O  O9595  1  0.31949349  0.24921471  0.42728516  1.0
  O  O9596  1  0.31949349  0.41588137  0.42728516  1.0
  O  O9597  1  0.31949349  0.58254804  0.42728516  1.0
  O  O9598  1  0.31949349  0.74921471  0.42728516  1.0
  O  O9599  1  0.31949349  0.91588137  0.42728516  1.0
  O  O9600  1  0.40282683  0.08254804  0.42728516  1.0
  O  O9601  1  0.40282683  0.24921471  0.42728516  1.0
  O  O9602  1  0.40282683  0.41588137  0.42728516  1.0
  O  O9603  1  0.40282683  0.58254804  0.42728516  1.0
  O  O9604  1  0.40282683  0.74921471  0.42728516  1.0
  O  O9605  1  0.40282683  0.91588137  0.42728516  1.0
  O  O9606  1  0.48616016  0.08254804  0.42728516  1.0
  O  O9607  1  0.48616016  0.24921471  0.42728516  1.0
  O  O9608  1  0.48616016  0.41588137  0.42728516  1.0
  O  O9609  1  0.48616016  0.58254804  0.42728516  1.0
  O  O9610  1  0.48616016  0.74921471  0.42728516  1.0
  O  O9611  1  0.48616016  0.91588137  0.42728516  1.0
  O  O9612  1  0.56949349  0.08254804  0.42728516  1.0
  O  O9613  1  0.56949349  0.24921471  0.42728516  1.0
  O  O9614  1  0.56949349  0.41588137  0.42728516  1.0
  O  O9615  1  0.56949349  0.58254804  0.42728516  1.0
  O  O9616  1  0.56949349  0.74921471  0.42728516  1.0
  O  O9617  1  0.56949349  0.91588137  0.42728516  1.0
  O  O9618  1  0.65282683  0.08254804  0.42728516  1.0
  O  O9619  1  0.65282683  0.24921471  0.42728516  1.0
  O  O9620  1  0.65282683  0.41588137  0.42728516  1.0
  O  O9621  1  0.65282683  0.58254804  0.42728516  1.0
  O  O9622  1  0.65282683  0.74921471  0.42728516  1.0
  O  O9623  1  0.65282683  0.91588137  0.42728516  1.0
  O  O9624  1  0.73616016  0.08254804  0.42728516  1.0
  O  O9625  1  0.73616016  0.24921471  0.42728516  1.0
  O  O9626  1  0.73616016  0.41588137  0.42728516  1.0
  O  O9627  1  0.73616016  0.58254804  0.42728516  1.0
  O  O9628  1  0.73616016  0.74921471  0.42728516  1.0
  O  O9629  1  0.73616016  0.91588137  0.42728516  1.0
  O  O9630  1  0.81949349  0.08254804  0.42728516  1.0
  O  O9631  1  0.81949349  0.24921471  0.42728516  1.0
  O  O9632  1  0.81949349  0.41588137  0.42728516  1.0
  O  O9633  1  0.81949349  0.58254804  0.42728516  1.0
  O  O9634  1  0.81949349  0.74921471  0.42728516  1.0
  O  O9635  1  0.81949349  0.91588137  0.42728516  1.0
  O  O9636  1  0.90282683  0.08254804  0.42728516  1.0
  O  O9637  1  0.90282683  0.24921471  0.42728516  1.0
  O  O9638  1  0.90282683  0.41588137  0.42728516  1.0
  O  O9639  1  0.90282683  0.58254804  0.42728516  1.0
  O  O9640  1  0.90282683  0.74921471  0.42728516  1.0
  O  O9641  1  0.90282683  0.91588137  0.42728516  1.0
  O  O9642  1  0.98616016  0.08254804  0.42728516  1.0
  O  O9643  1  0.98616016  0.24921471  0.42728516  1.0
  O  O9644  1  0.98616016  0.41588137  0.42728516  1.0
  O  O9645  1  0.98616016  0.58254804  0.42728516  1.0
  O  O9646  1  0.98616016  0.74921471  0.42728516  1.0
  O  O9647  1  0.98616016  0.91588137  0.42728516  1.0
  O  O9648  1  0.06895864  0.15688319  0.55580663  1.0
  O  O9649  1  0.06895864  0.32354985  0.55580663  1.0
  O  O9650  1  0.06895864  0.49021652  0.55580663  1.0
  O  O9651  1  0.06895864  0.65688319  0.55580663  1.0
  O  O9652  1  0.06895864  0.82354985  0.55580663  1.0
  O  O9653  1  0.06895864  0.99021652  0.55580663  1.0
  O  O9654  1  0.15229198  0.15688319  0.55580663  1.0
  O  O9655  1  0.15229198  0.32354985  0.55580663  1.0
  O  O9656  1  0.15229198  0.49021652  0.55580663  1.0
  O  O9657  1  0.15229198  0.65688319  0.55580663  1.0
  O  O9658  1  0.15229198  0.82354985  0.55580663  1.0
  O  O9659  1  0.15229198  0.99021652  0.55580663  1.0
  O  O9660  1  0.23562531  0.15688319  0.55580663  1.0
  O  O9661  1  0.23562531  0.32354985  0.55580663  1.0
  O  O9662  1  0.23562531  0.49021652  0.55580663  1.0
  O  O9663  1  0.23562531  0.65688319  0.55580663  1.0
  O  O9664  1  0.23562531  0.82354985  0.55580663  1.0
  O  O9665  1  0.23562531  0.99021652  0.55580663  1.0
  O  O9666  1  0.31895864  0.15688319  0.55580663  1.0
  O  O9667  1  0.31895864  0.32354985  0.55580663  1.0
  O  O9668  1  0.31895864  0.49021652  0.55580663  1.0
  O  O9669  1  0.31895864  0.65688319  0.55580663  1.0
  O  O9670  1  0.31895864  0.82354985  0.55580663  1.0
  O  O9671  1  0.31895864  0.99021652  0.55580663  1.0
  O  O9672  1  0.40229198  0.15688319  0.55580663  1.0
  O  O9673  1  0.40229198  0.32354985  0.55580663  1.0
  O  O9674  1  0.40229198  0.49021652  0.55580663  1.0
  O  O9675  1  0.40229198  0.65688319  0.55580663  1.0
  O  O9676  1  0.40229198  0.82354985  0.55580663  1.0
  O  O9677  1  0.40229198  0.99021652  0.55580663  1.0
  O  O9678  1  0.48562531  0.15688319  0.55580663  1.0
  O  O9679  1  0.48562531  0.32354985  0.55580663  1.0
  O  O9680  1  0.48562531  0.49021652  0.55580663  1.0
  O  O9681  1  0.48562531  0.65688319  0.55580663  1.0
  O  O9682  1  0.48562531  0.82354985  0.55580663  1.0
  O  O9683  1  0.48562531  0.99021652  0.55580663  1.0
  O  O9684  1  0.56895864  0.15688319  0.55580663  1.0
  O  O9685  1  0.56895864  0.32354985  0.55580663  1.0
  O  O9686  1  0.56895864  0.49021652  0.55580663  1.0
  O  O9687  1  0.56895864  0.65688319  0.55580663  1.0
  O  O9688  1  0.56895864  0.82354985  0.55580663  1.0
  O  O9689  1  0.56895864  0.99021652  0.55580663  1.0
  O  O9690  1  0.65229198  0.15688319  0.55580663  1.0
  O  O9691  1  0.65229198  0.32354985  0.55580663  1.0
  O  O9692  1  0.65229198  0.49021652  0.55580663  1.0
  O  O9693  1  0.65229198  0.65688319  0.55580663  1.0
  O  O9694  1  0.65229198  0.82354985  0.55580663  1.0
  O  O9695  1  0.65229198  0.99021652  0.55580663  1.0
  O  O9696  1  0.73562531  0.15688319  0.55580663  1.0
  O  O9697  1  0.73562531  0.32354985  0.55580663  1.0
  O  O9698  1  0.73562531  0.49021652  0.55580663  1.0
  O  O9699  1  0.73562531  0.65688319  0.55580663  1.0
  O  O9700  1  0.73562531  0.82354985  0.55580663  1.0
  O  O9701  1  0.73562531  0.99021652  0.55580663  1.0
  O  O9702  1  0.81895864  0.15688319  0.55580663  1.0
  O  O9703  1  0.81895864  0.32354985  0.55580663  1.0
  O  O9704  1  0.81895864  0.49021652  0.55580663  1.0
  O  O9705  1  0.81895864  0.65688319  0.55580663  1.0
  O  O9706  1  0.81895864  0.82354985  0.55580663  1.0
  O  O9707  1  0.81895864  0.99021652  0.55580663  1.0
  O  O9708  1  0.90229198  0.15688319  0.55580663  1.0
  O  O9709  1  0.90229198  0.32354985  0.55580663  1.0
  O  O9710  1  0.90229198  0.49021652  0.55580663  1.0
  O  O9711  1  0.90229198  0.65688319  0.55580663  1.0
  O  O9712  1  0.90229198  0.82354985  0.55580663  1.0
  O  O9713  1  0.90229198  0.99021652  0.55580663  1.0
  O  O9714  1  0.98562531  0.15688319  0.55580663  1.0
  O  O9715  1  0.98562531  0.32354985  0.55580663  1.0
  O  O9716  1  0.98562531  0.49021652  0.55580663  1.0
  O  O9717  1  0.98562531  0.65688319  0.55580663  1.0
  O  O9718  1  0.98562531  0.82354985  0.55580663  1.0
  O  O9719  1  0.98562531  0.99021652  0.55580663  1.0
  O  O9720  1  0.04514912  0.14497842  0.62723520  1.0
  O  O9721  1  0.04514912  0.31164509  0.62723520  1.0
  O  O9722  1  0.04514912  0.47831176  0.62723520  1.0
  O  O9723  1  0.04514912  0.64497842  0.62723520  1.0
  O  O9724  1  0.04514912  0.81164509  0.62723520  1.0
  O  O9725  1  0.04514912  0.97831176  0.62723520  1.0
  O  O9726  1  0.12848245  0.14497842  0.62723520  1.0
  O  O9727  1  0.12848245  0.31164509  0.62723520  1.0
  O  O9728  1  0.12848245  0.47831176  0.62723520  1.0
  O  O9729  1  0.12848245  0.64497842  0.62723520  1.0
  O  O9730  1  0.12848245  0.81164509  0.62723520  1.0
  O  O9731  1  0.12848245  0.97831176  0.62723520  1.0
  O  O9732  1  0.21181579  0.14497842  0.62723520  1.0
  O  O9733  1  0.21181579  0.31164509  0.62723520  1.0
  O  O9734  1  0.21181579  0.47831176  0.62723520  1.0
  O  O9735  1  0.21181579  0.64497842  0.62723520  1.0
  O  O9736  1  0.21181579  0.81164509  0.62723520  1.0
  O  O9737  1  0.21181579  0.97831176  0.62723520  1.0
  O  O9738  1  0.29514912  0.14497842  0.62723520  1.0
  O  O9739  1  0.29514912  0.31164509  0.62723520  1.0
  O  O9740  1  0.29514912  0.47831176  0.62723520  1.0
  O  O9741  1  0.29514912  0.64497842  0.62723520  1.0
  O  O9742  1  0.29514912  0.81164509  0.62723520  1.0
  O  O9743  1  0.29514912  0.97831176  0.62723520  1.0
  O  O9744  1  0.37848245  0.14497842  0.62723520  1.0
  O  O9745  1  0.37848245  0.31164509  0.62723520  1.0
  O  O9746  1  0.37848245  0.47831176  0.62723520  1.0
  O  O9747  1  0.37848245  0.64497842  0.62723520  1.0
  O  O9748  1  0.37848245  0.81164509  0.62723520  1.0
  O  O9749  1  0.37848245  0.97831176  0.62723520  1.0
  O  O9750  1  0.46181579  0.14497842  0.62723520  1.0
  O  O9751  1  0.46181579  0.31164509  0.62723520  1.0
  O  O9752  1  0.46181579  0.47831176  0.62723520  1.0
  O  O9753  1  0.46181579  0.64497842  0.62723520  1.0
  O  O9754  1  0.46181579  0.81164509  0.62723520  1.0
  O  O9755  1  0.46181579  0.97831176  0.62723520  1.0
  O  O9756  1  0.54514912  0.14497842  0.62723520  1.0
  O  O9757  1  0.54514912  0.31164509  0.62723520  1.0
  O  O9758  1  0.54514912  0.47831176  0.62723520  1.0
  O  O9759  1  0.54514912  0.64497842  0.62723520  1.0
  O  O9760  1  0.54514912  0.81164509  0.62723520  1.0
  O  O9761  1  0.54514912  0.97831176  0.62723520  1.0
  O  O9762  1  0.62848245  0.14497842  0.62723520  1.0
  O  O9763  1  0.62848245  0.31164509  0.62723520  1.0
  O  O9764  1  0.62848245  0.47831176  0.62723520  1.0
  O  O9765  1  0.62848245  0.64497842  0.62723520  1.0
  O  O9766  1  0.62848245  0.81164509  0.62723520  1.0
  O  O9767  1  0.62848245  0.97831176  0.62723520  1.0
  O  O9768  1  0.71181579  0.14497842  0.62723520  1.0
  O  O9769  1  0.71181579  0.31164509  0.62723520  1.0
  O  O9770  1  0.71181579  0.47831176  0.62723520  1.0
  O  O9771  1  0.71181579  0.64497842  0.62723520  1.0
  O  O9772  1  0.71181579  0.81164509  0.62723520  1.0
  O  O9773  1  0.71181579  0.97831176  0.62723520  1.0
  O  O9774  1  0.79514912  0.14497842  0.62723520  1.0
  O  O9775  1  0.79514912  0.31164509  0.62723520  1.0
  O  O9776  1  0.79514912  0.47831176  0.62723520  1.0
  O  O9777  1  0.79514912  0.64497842  0.62723520  1.0
  O  O9778  1  0.79514912  0.81164509  0.62723520  1.0
  O  O9779  1  0.79514912  0.97831176  0.62723520  1.0
  O  O9780  1  0.87848245  0.14497842  0.62723520  1.0
  O  O9781  1  0.87848245  0.31164509  0.62723520  1.0
  O  O9782  1  0.87848245  0.47831176  0.62723520  1.0
  O  O9783  1  0.87848245  0.64497842  0.62723520  1.0
  O  O9784  1  0.87848245  0.81164509  0.62723520  1.0
  O  O9785  1  0.87848245  0.97831176  0.62723520  1.0
  O  O9786  1  0.96181579  0.14497842  0.62723520  1.0
  O  O9787  1  0.96181579  0.31164509  0.62723520  1.0
  O  O9788  1  0.96181579  0.47831176  0.62723520  1.0
  O  O9789  1  0.96181579  0.64497842  0.62723520  1.0
  O  O9790  1  0.96181579  0.81164509  0.62723520  1.0
  O  O9791  1  0.96181579  0.97831176  0.62723520  1.0
  O  O9792  1  0.07325787  0.11206088  0.54505996  1.0
  O  O9793  1  0.07325787  0.27872754  0.54505996  1.0
  O  O9794  1  0.07325787  0.44539421  0.54505996  1.0
  O  O9795  1  0.07325787  0.61206088  0.54505996  1.0
  O  O9796  1  0.07325787  0.77872754  0.54505996  1.0
  O  O9797  1  0.07325787  0.94539421  0.54505996  1.0
  O  O9798  1  0.15659120  0.11206088  0.54505996  1.0
  O  O9799  1  0.15659120  0.27872754  0.54505996  1.0
  O  O9800  1  0.15659120  0.44539421  0.54505996  1.0
  O  O9801  1  0.15659120  0.61206088  0.54505996  1.0
  O  O9802  1  0.15659120  0.77872754  0.54505996  1.0
  O  O9803  1  0.15659120  0.94539421  0.54505996  1.0
  O  O9804  1  0.23992454  0.11206088  0.54505996  1.0
  O  O9805  1  0.23992454  0.27872754  0.54505996  1.0
  O  O9806  1  0.23992454  0.44539421  0.54505996  1.0
  O  O9807  1  0.23992454  0.61206088  0.54505996  1.0
  O  O9808  1  0.23992454  0.77872754  0.54505996  1.0
  O  O9809  1  0.23992454  0.94539421  0.54505996  1.0
  O  O9810  1  0.32325787  0.11206088  0.54505996  1.0
  O  O9811  1  0.32325787  0.27872754  0.54505996  1.0
  O  O9812  1  0.32325787  0.44539421  0.54505996  1.0
  O  O9813  1  0.32325787  0.61206088  0.54505996  1.0
  O  O9814  1  0.32325787  0.77872754  0.54505996  1.0
  O  O9815  1  0.32325787  0.94539421  0.54505996  1.0
  O  O9816  1  0.40659120  0.11206088  0.54505996  1.0
  O  O9817  1  0.40659120  0.27872754  0.54505996  1.0
  O  O9818  1  0.40659120  0.44539421  0.54505996  1.0
  O  O9819  1  0.40659120  0.61206088  0.54505996  1.0
  O  O9820  1  0.40659120  0.77872754  0.54505996  1.0
  O  O9821  1  0.40659120  0.94539421  0.54505996  1.0
  O  O9822  1  0.48992454  0.11206088  0.54505996  1.0
  O  O9823  1  0.48992454  0.27872754  0.54505996  1.0
  O  O9824  1  0.48992454  0.44539421  0.54505996  1.0
  O  O9825  1  0.48992454  0.61206088  0.54505996  1.0
  O  O9826  1  0.48992454  0.77872754  0.54505996  1.0
  O  O9827  1  0.48992454  0.94539421  0.54505996  1.0
  O  O9828  1  0.57325787  0.11206088  0.54505996  1.0
  O  O9829  1  0.57325787  0.27872754  0.54505996  1.0
  O  O9830  1  0.57325787  0.44539421  0.54505996  1.0
  O  O9831  1  0.57325787  0.61206088  0.54505996  1.0
  O  O9832  1  0.57325787  0.77872754  0.54505996  1.0
  O  O9833  1  0.57325787  0.94539421  0.54505996  1.0
  O  O9834  1  0.65659120  0.11206088  0.54505996  1.0
  O  O9835  1  0.65659120  0.27872754  0.54505996  1.0
  O  O9836  1  0.65659120  0.44539421  0.54505996  1.0
  O  O9837  1  0.65659120  0.61206088  0.54505996  1.0
  O  O9838  1  0.65659120  0.77872754  0.54505996  1.0
  O  O9839  1  0.65659120  0.94539421  0.54505996  1.0
  O  O9840  1  0.73992454  0.11206088  0.54505996  1.0
  O  O9841  1  0.73992454  0.27872754  0.54505996  1.0
  O  O9842  1  0.73992454  0.44539421  0.54505996  1.0
  O  O9843  1  0.73992454  0.61206088  0.54505996  1.0
  O  O9844  1  0.73992454  0.77872754  0.54505996  1.0
  O  O9845  1  0.73992454  0.94539421  0.54505996  1.0
  O  O9846  1  0.82325787  0.11206088  0.54505996  1.0
  O  O9847  1  0.82325787  0.27872754  0.54505996  1.0
  O  O9848  1  0.82325787  0.44539421  0.54505996  1.0
  O  O9849  1  0.82325787  0.61206088  0.54505996  1.0
  O  O9850  1  0.82325787  0.77872754  0.54505996  1.0
  O  O9851  1  0.82325787  0.94539421  0.54505996  1.0
  O  O9852  1  0.90659120  0.11206088  0.54505996  1.0
  O  O9853  1  0.90659120  0.27872754  0.54505996  1.0
  O  O9854  1  0.90659120  0.44539421  0.54505996  1.0
  O  O9855  1  0.90659120  0.61206088  0.54505996  1.0
  O  O9856  1  0.90659120  0.77872754  0.54505996  1.0
  O  O9857  1  0.90659120  0.94539421  0.54505996  1.0
  O  O9858  1  0.98992454  0.11206088  0.54505996  1.0
  O  O9859  1  0.98992454  0.27872754  0.54505996  1.0
  O  O9860  1  0.98992454  0.44539421  0.54505996  1.0
  O  O9861  1  0.98992454  0.61206088  0.54505996  1.0
  O  O9862  1  0.98992454  0.77872754  0.54505996  1.0
  O  O9863  1  0.98992454  0.94539421  0.54505996  1.0
  O  O9864  1  0.04944835  0.10015611  0.61648853  1.0
  O  O9865  1  0.04944835  0.26682278  0.61648853  1.0
  O  O9866  1  0.04944835  0.43348945  0.61648853  1.0
  O  O9867  1  0.04944835  0.60015611  0.61648853  1.0
  O  O9868  1  0.04944835  0.76682278  0.61648853  1.0
  O  O9869  1  0.04944835  0.93348945  0.61648853  1.0
  O  O9870  1  0.13278168  0.10015611  0.61648853  1.0
  O  O9871  1  0.13278168  0.26682278  0.61648853  1.0
  O  O9872  1  0.13278168  0.43348945  0.61648853  1.0
  O  O9873  1  0.13278168  0.60015611  0.61648853  1.0
  O  O9874  1  0.13278168  0.76682278  0.61648853  1.0
  O  O9875  1  0.13278168  0.93348945  0.61648853  1.0
  O  O9876  1  0.21611501  0.10015611  0.61648853  1.0
  O  O9877  1  0.21611501  0.26682278  0.61648853  1.0
  O  O9878  1  0.21611501  0.43348945  0.61648853  1.0
  O  O9879  1  0.21611501  0.60015611  0.61648853  1.0
  O  O9880  1  0.21611501  0.76682278  0.61648853  1.0
  O  O9881  1  0.21611501  0.93348945  0.61648853  1.0
  O  O9882  1  0.29944835  0.10015611  0.61648853  1.0
  O  O9883  1  0.29944835  0.26682278  0.61648853  1.0
  O  O9884  1  0.29944835  0.43348945  0.61648853  1.0
  O  O9885  1  0.29944835  0.60015611  0.61648853  1.0
  O  O9886  1  0.29944835  0.76682278  0.61648853  1.0
  O  O9887  1  0.29944835  0.93348945  0.61648853  1.0
  O  O9888  1  0.38278168  0.10015611  0.61648853  1.0
  O  O9889  1  0.38278168  0.26682278  0.61648853  1.0
  O  O9890  1  0.38278168  0.43348945  0.61648853  1.0
  O  O9891  1  0.38278168  0.60015611  0.61648853  1.0
  O  O9892  1  0.38278168  0.76682278  0.61648853  1.0
  O  O9893  1  0.38278168  0.93348945  0.61648853  1.0
  O  O9894  1  0.46611501  0.10015611  0.61648853  1.0
  O  O9895  1  0.46611501  0.26682278  0.61648853  1.0
  O  O9896  1  0.46611501  0.43348945  0.61648853  1.0
  O  O9897  1  0.46611501  0.60015611  0.61648853  1.0
  O  O9898  1  0.46611501  0.76682278  0.61648853  1.0
  O  O9899  1  0.46611501  0.93348945  0.61648853  1.0
  O  O9900  1  0.54944835  0.10015611  0.61648853  1.0
  O  O9901  1  0.54944835  0.26682278  0.61648853  1.0
  O  O9902  1  0.54944835  0.43348945  0.61648853  1.0
  O  O9903  1  0.54944835  0.60015611  0.61648853  1.0
  O  O9904  1  0.54944835  0.76682278  0.61648853  1.0
  O  O9905  1  0.54944835  0.93348945  0.61648853  1.0
  O  O9906  1  0.63278168  0.10015611  0.61648853  1.0
  O  O9907  1  0.63278168  0.26682278  0.61648853  1.0
  O  O9908  1  0.63278168  0.43348945  0.61648853  1.0
  O  O9909  1  0.63278168  0.60015611  0.61648853  1.0
  O  O9910  1  0.63278168  0.76682278  0.61648853  1.0
  O  O9911  1  0.63278168  0.93348945  0.61648853  1.0
  O  O9912  1  0.71611501  0.10015611  0.61648853  1.0
  O  O9913  1  0.71611501  0.26682278  0.61648853  1.0
  O  O9914  1  0.71611501  0.43348945  0.61648853  1.0
  O  O9915  1  0.71611501  0.60015611  0.61648853  1.0
  O  O9916  1  0.71611501  0.76682278  0.61648853  1.0
  O  O9917  1  0.71611501  0.93348945  0.61648853  1.0
  O  O9918  1  0.79944835  0.10015611  0.61648853  1.0
  O  O9919  1  0.79944835  0.26682278  0.61648853  1.0
  O  O9920  1  0.79944835  0.43348945  0.61648853  1.0
  O  O9921  1  0.79944835  0.60015611  0.61648853  1.0
  O  O9922  1  0.79944835  0.76682278  0.61648853  1.0
  O  O9923  1  0.79944835  0.93348945  0.61648853  1.0
  O  O9924  1  0.88278168  0.10015611  0.61648853  1.0
  O  O9925  1  0.88278168  0.26682278  0.61648853  1.0
  O  O9926  1  0.88278168  0.43348945  0.61648853  1.0
  O  O9927  1  0.88278168  0.60015611  0.61648853  1.0
  O  O9928  1  0.88278168  0.76682278  0.61648853  1.0
  O  O9929  1  0.88278168  0.93348945  0.61648853  1.0
  O  O9930  1  0.96611501  0.10015611  0.61648853  1.0
  O  O9931  1  0.96611501  0.26682278  0.61648853  1.0
  O  O9932  1  0.96611501  0.43348945  0.61648853  1.0
  O  O9933  1  0.96611501  0.60015611  0.61648853  1.0
  O  O9934  1  0.96611501  0.76682278  0.61648853  1.0
  O  O9935  1  0.96611501  0.93348945  0.61648853  1.0
  O  O9936  1  0.02612986  0.01283943  0.56076642  1.0
  O  O9937  1  0.02612986  0.17950609  0.56076642  1.0
  O  O9938  1  0.02612986  0.34617276  0.56076642  1.0
  O  O9939  1  0.02612986  0.51283943  0.56076642  1.0
  O  O9940  1  0.02612986  0.67950609  0.56076642  1.0
  O  O9941  1  0.02612986  0.84617276  0.56076642  1.0
  O  O9942  1  0.10946320  0.01283943  0.56076642  1.0
  O  O9943  1  0.10946320  0.17950609  0.56076642  1.0
  O  O9944  1  0.10946320  0.34617276  0.56076642  1.0
  O  O9945  1  0.10946320  0.51283943  0.56076642  1.0
  O  O9946  1  0.10946320  0.67950609  0.56076642  1.0
  O  O9947  1  0.10946320  0.84617276  0.56076642  1.0
  O  O9948  1  0.19279653  0.01283943  0.56076642  1.0
  O  O9949  1  0.19279653  0.17950609  0.56076642  1.0
  O  O9950  1  0.19279653  0.34617276  0.56076642  1.0
  O  O9951  1  0.19279653  0.51283943  0.56076642  1.0
  O  O9952  1  0.19279653  0.67950609  0.56076642  1.0
  O  O9953  1  0.19279653  0.84617276  0.56076642  1.0
  O  O9954  1  0.27612986  0.01283943  0.56076642  1.0
  O  O9955  1  0.27612986  0.17950609  0.56076642  1.0
  O  O9956  1  0.27612986  0.34617276  0.56076642  1.0
  O  O9957  1  0.27612986  0.51283943  0.56076642  1.0
  O  O9958  1  0.27612986  0.67950609  0.56076642  1.0
  O  O9959  1  0.27612986  0.84617276  0.56076642  1.0
  O  O9960  1  0.35946320  0.01283943  0.56076642  1.0
  O  O9961  1  0.35946320  0.17950609  0.56076642  1.0
  O  O9962  1  0.35946320  0.34617276  0.56076642  1.0
  O  O9963  1  0.35946320  0.51283943  0.56076642  1.0
  O  O9964  1  0.35946320  0.67950609  0.56076642  1.0
  O  O9965  1  0.35946320  0.84617276  0.56076642  1.0
  O  O9966  1  0.44279653  0.01283943  0.56076642  1.0
  O  O9967  1  0.44279653  0.17950609  0.56076642  1.0
  O  O9968  1  0.44279653  0.34617276  0.56076642  1.0
  O  O9969  1  0.44279653  0.51283943  0.56076642  1.0
  O  O9970  1  0.44279653  0.67950609  0.56076642  1.0
  O  O9971  1  0.44279653  0.84617276  0.56076642  1.0
  O  O9972  1  0.52612986  0.01283943  0.56076642  1.0
  O  O9973  1  0.52612986  0.17950609  0.56076642  1.0
  O  O9974  1  0.52612986  0.34617276  0.56076642  1.0
  O  O9975  1  0.52612986  0.51283943  0.56076642  1.0
  O  O9976  1  0.52612986  0.67950609  0.56076642  1.0
  O  O9977  1  0.52612986  0.84617276  0.56076642  1.0
  O  O9978  1  0.60946320  0.01283943  0.56076642  1.0
  O  O9979  1  0.60946320  0.17950609  0.56076642  1.0
  O  O9980  1  0.60946320  0.34617276  0.56076642  1.0
  O  O9981  1  0.60946320  0.51283943  0.56076642  1.0
  O  O9982  1  0.60946320  0.67950609  0.56076642  1.0
  O  O9983  1  0.60946320  0.84617276  0.56076642  1.0
  O  O9984  1  0.69279653  0.01283943  0.56076642  1.0
  O  O9985  1  0.69279653  0.17950609  0.56076642  1.0
  O  O9986  1  0.69279653  0.34617276  0.56076642  1.0
  O  O9987  1  0.69279653  0.51283943  0.56076642  1.0
  O  O9988  1  0.69279653  0.67950609  0.56076642  1.0
  O  O9989  1  0.69279653  0.84617276  0.56076642  1.0
  O  O9990  1  0.77612986  0.01283943  0.56076642  1.0
  O  O9991  1  0.77612986  0.17950609  0.56076642  1.0
  O  O9992  1  0.77612986  0.34617276  0.56076642  1.0
  O  O9993  1  0.77612986  0.51283943  0.56076642  1.0
  O  O9994  1  0.77612986  0.67950609  0.56076642  1.0
  O  O9995  1  0.77612986  0.84617276  0.56076642  1.0
  O  O9996  1  0.85946320  0.01283943  0.56076642  1.0
  O  O9997  1  0.85946320  0.17950609  0.56076642  1.0
  O  O9998  1  0.85946320  0.34617276  0.56076642  1.0
  O  O9999  1  0.85946320  0.51283943  0.56076642  1.0
  O  O10000  1  0.85946320  0.67950609  0.56076642  1.0
  O  O10001  1  0.85946320  0.84617276  0.56076642  1.0
  O  O10002  1  0.94279653  0.01283943  0.56076642  1.0
  O  O10003  1  0.94279653  0.17950609  0.56076642  1.0
  O  O10004  1  0.94279653  0.34617276  0.56076642  1.0
  O  O10005  1  0.94279653  0.51283943  0.56076642  1.0
  O  O10006  1  0.94279653  0.67950609  0.56076642  1.0
  O  O10007  1  0.94279653  0.84617276  0.56076642  1.0
  O  O10008  1  0.00232034  0.00093467  0.63219499  1.0
  O  O10009  1  0.00232034  0.16760133  0.63219499  1.0
  O  O10010  1  0.00232034  0.33426800  0.63219499  1.0
  O  O10011  1  0.00232034  0.50093467  0.63219499  1.0
  O  O10012  1  0.00232034  0.66760133  0.63219499  1.0
  O  O10013  1  0.00232034  0.83426800  0.63219499  1.0
  O  O10014  1  0.08565367  0.00093467  0.63219499  1.0
  O  O10015  1  0.08565367  0.16760133  0.63219499  1.0
  O  O10016  1  0.08565367  0.33426800  0.63219499  1.0
  O  O10017  1  0.08565367  0.50093467  0.63219499  1.0
  O  O10018  1  0.08565367  0.66760133  0.63219499  1.0
  O  O10019  1  0.08565367  0.83426800  0.63219499  1.0
  O  O10020  1  0.16898701  0.00093467  0.63219499  1.0
  O  O10021  1  0.16898701  0.16760133  0.63219499  1.0
  O  O10022  1  0.16898701  0.33426800  0.63219499  1.0
  O  O10023  1  0.16898701  0.50093467  0.63219499  1.0
  O  O10024  1  0.16898701  0.66760133  0.63219499  1.0
  O  O10025  1  0.16898701  0.83426800  0.63219499  1.0
  O  O10026  1  0.25232034  0.00093467  0.63219499  1.0
  O  O10027  1  0.25232034  0.16760133  0.63219499  1.0
  O  O10028  1  0.25232034  0.33426800  0.63219499  1.0
  O  O10029  1  0.25232034  0.50093467  0.63219499  1.0
  O  O10030  1  0.25232034  0.66760133  0.63219499  1.0
  O  O10031  1  0.25232034  0.83426800  0.63219499  1.0
  O  O10032  1  0.33565367  0.00093467  0.63219499  1.0
  O  O10033  1  0.33565367  0.16760133  0.63219499  1.0
  O  O10034  1  0.33565367  0.33426800  0.63219499  1.0
  O  O10035  1  0.33565367  0.50093467  0.63219499  1.0
  O  O10036  1  0.33565367  0.66760133  0.63219499  1.0
  O  O10037  1  0.33565367  0.83426800  0.63219499  1.0
  O  O10038  1  0.41898701  0.00093467  0.63219499  1.0
  O  O10039  1  0.41898701  0.16760133  0.63219499  1.0
  O  O10040  1  0.41898701  0.33426800  0.63219499  1.0
  O  O10041  1  0.41898701  0.50093467  0.63219499  1.0
  O  O10042  1  0.41898701  0.66760133  0.63219499  1.0
  O  O10043  1  0.41898701  0.83426800  0.63219499  1.0
  O  O10044  1  0.50232034  0.00093467  0.63219499  1.0
  O  O10045  1  0.50232034  0.16760133  0.63219499  1.0
  O  O10046  1  0.50232034  0.33426800  0.63219499  1.0
  O  O10047  1  0.50232034  0.50093467  0.63219499  1.0
  O  O10048  1  0.50232034  0.66760133  0.63219499  1.0
  O  O10049  1  0.50232034  0.83426800  0.63219499  1.0
  O  O10050  1  0.58565367  0.00093467  0.63219499  1.0
  O  O10051  1  0.58565367  0.16760133  0.63219499  1.0
  O  O10052  1  0.58565367  0.33426800  0.63219499  1.0
  O  O10053  1  0.58565367  0.50093467  0.63219499  1.0
  O  O10054  1  0.58565367  0.66760133  0.63219499  1.0
  O  O10055  1  0.58565367  0.83426800  0.63219499  1.0
  O  O10056  1  0.66898701  0.00093467  0.63219499  1.0
  O  O10057  1  0.66898701  0.16760133  0.63219499  1.0
  O  O10058  1  0.66898701  0.33426800  0.63219499  1.0
  O  O10059  1  0.66898701  0.50093467  0.63219499  1.0
  O  O10060  1  0.66898701  0.66760133  0.63219499  1.0
  O  O10061  1  0.66898701  0.83426800  0.63219499  1.0
  O  O10062  1  0.75232034  0.00093467  0.63219499  1.0
  O  O10063  1  0.75232034  0.16760133  0.63219499  1.0
  O  O10064  1  0.75232034  0.33426800  0.63219499  1.0
  O  O10065  1  0.75232034  0.50093467  0.63219499  1.0
  O  O10066  1  0.75232034  0.66760133  0.63219499  1.0
  O  O10067  1  0.75232034  0.83426800  0.63219499  1.0
  O  O10068  1  0.83565367  0.00093467  0.63219499  1.0
  O  O10069  1  0.83565367  0.16760133  0.63219499  1.0
  O  O10070  1  0.83565367  0.33426800  0.63219499  1.0
  O  O10071  1  0.83565367  0.50093467  0.63219499  1.0
  O  O10072  1  0.83565367  0.66760133  0.63219499  1.0
  O  O10073  1  0.83565367  0.83426800  0.63219499  1.0
  O  O10074  1  0.91898701  0.00093467  0.63219499  1.0
  O  O10075  1  0.91898701  0.16760133  0.63219499  1.0
  O  O10076  1  0.91898701  0.33426800  0.63219499  1.0
  O  O10077  1  0.91898701  0.50093467  0.63219499  1.0
  O  O10078  1  0.91898701  0.66760133  0.63219499  1.0
  O  O10079  1  0.91898701  0.83426800  0.63219499  1.0
  O  O10080  1  0.02896257  0.13454659  0.55137030  1.0
  O  O10081  1  0.02896257  0.30121326  0.55137030  1.0
  O  O10082  1  0.02896257  0.46787992  0.55137030  1.0
  O  O10083  1  0.02896257  0.63454659  0.55137030  1.0
  O  O10084  1  0.02896257  0.80121326  0.55137030  1.0
  O  O10085  1  0.02896257  0.96787992  0.55137030  1.0
  O  O10086  1  0.11229591  0.13454659  0.55137030  1.0
  O  O10087  1  0.11229591  0.30121326  0.55137030  1.0
  O  O10088  1  0.11229591  0.46787992  0.55137030  1.0
  O  O10089  1  0.11229591  0.63454659  0.55137030  1.0
  O  O10090  1  0.11229591  0.80121326  0.55137030  1.0
  O  O10091  1  0.11229591  0.96787992  0.55137030  1.0
  O  O10092  1  0.19562924  0.13454659  0.55137030  1.0
  O  O10093  1  0.19562924  0.30121326  0.55137030  1.0
  O  O10094  1  0.19562924  0.46787992  0.55137030  1.0
  O  O10095  1  0.19562924  0.63454659  0.55137030  1.0
  O  O10096  1  0.19562924  0.80121326  0.55137030  1.0
  O  O10097  1  0.19562924  0.96787992  0.55137030  1.0
  O  O10098  1  0.27896257  0.13454659  0.55137030  1.0
  O  O10099  1  0.27896257  0.30121326  0.55137030  1.0
  O  O10100  1  0.27896257  0.46787992  0.55137030  1.0
  O  O10101  1  0.27896257  0.63454659  0.55137030  1.0
  O  O10102  1  0.27896257  0.80121326  0.55137030  1.0
  O  O10103  1  0.27896257  0.96787992  0.55137030  1.0
  O  O10104  1  0.36229591  0.13454659  0.55137030  1.0
  O  O10105  1  0.36229591  0.30121326  0.55137030  1.0
  O  O10106  1  0.36229591  0.46787992  0.55137030  1.0
  O  O10107  1  0.36229591  0.63454659  0.55137030  1.0
  O  O10108  1  0.36229591  0.80121326  0.55137030  1.0
  O  O10109  1  0.36229591  0.96787992  0.55137030  1.0
  O  O10110  1  0.44562924  0.13454659  0.55137030  1.0
  O  O10111  1  0.44562924  0.30121326  0.55137030  1.0
  O  O10112  1  0.44562924  0.46787992  0.55137030  1.0
  O  O10113  1  0.44562924  0.63454659  0.55137030  1.0
  O  O10114  1  0.44562924  0.80121326  0.55137030  1.0
  O  O10115  1  0.44562924  0.96787992  0.55137030  1.0
  O  O10116  1  0.52896257  0.13454659  0.55137030  1.0
  O  O10117  1  0.52896257  0.30121326  0.55137030  1.0
  O  O10118  1  0.52896257  0.46787992  0.55137030  1.0
  O  O10119  1  0.52896257  0.63454659  0.55137030  1.0
  O  O10120  1  0.52896257  0.80121326  0.55137030  1.0
  O  O10121  1  0.52896257  0.96787992  0.55137030  1.0
  O  O10122  1  0.61229591  0.13454659  0.55137030  1.0
  O  O10123  1  0.61229591  0.30121326  0.55137030  1.0
  O  O10124  1  0.61229591  0.46787992  0.55137030  1.0
  O  O10125  1  0.61229591  0.63454659  0.55137030  1.0
  O  O10126  1  0.61229591  0.80121326  0.55137030  1.0
  O  O10127  1  0.61229591  0.96787992  0.55137030  1.0
  O  O10128  1  0.69562924  0.13454659  0.55137030  1.0
  O  O10129  1  0.69562924  0.30121326  0.55137030  1.0
  O  O10130  1  0.69562924  0.46787992  0.55137030  1.0
  O  O10131  1  0.69562924  0.63454659  0.55137030  1.0
  O  O10132  1  0.69562924  0.80121326  0.55137030  1.0
  O  O10133  1  0.69562924  0.96787992  0.55137030  1.0
  O  O10134  1  0.77896257  0.13454659  0.55137030  1.0
  O  O10135  1  0.77896257  0.30121326  0.55137030  1.0
  O  O10136  1  0.77896257  0.46787992  0.55137030  1.0
  O  O10137  1  0.77896257  0.63454659  0.55137030  1.0
  O  O10138  1  0.77896257  0.80121326  0.55137030  1.0
  O  O10139  1  0.77896257  0.96787992  0.55137030  1.0
  O  O10140  1  0.86229591  0.13454659  0.55137030  1.0
  O  O10141  1  0.86229591  0.30121326  0.55137030  1.0
  O  O10142  1  0.86229591  0.46787992  0.55137030  1.0
  O  O10143  1  0.86229591  0.63454659  0.55137030  1.0
  O  O10144  1  0.86229591  0.80121326  0.55137030  1.0
  O  O10145  1  0.86229591  0.96787992  0.55137030  1.0
  O  O10146  1  0.94562924  0.13454659  0.55137030  1.0
  O  O10147  1  0.94562924  0.30121326  0.55137030  1.0
  O  O10148  1  0.94562924  0.46787992  0.55137030  1.0
  O  O10149  1  0.94562924  0.63454659  0.55137030  1.0
  O  O10150  1  0.94562924  0.80121326  0.55137030  1.0
  O  O10151  1  0.94562924  0.96787992  0.55137030  1.0
  O  O10152  1  0.00515305  0.12264183  0.62279887  1.0
  O  O10153  1  0.00515305  0.28930850  0.62279887  1.0
  O  O10154  1  0.00515305  0.45597516  0.62279887  1.0
  O  O10155  1  0.00515305  0.62264183  0.62279887  1.0
  O  O10156  1  0.00515305  0.78930850  0.62279887  1.0
  O  O10157  1  0.00515305  0.95597516  0.62279887  1.0
  O  O10158  1  0.08848638  0.12264183  0.62279887  1.0
  O  O10159  1  0.08848638  0.28930850  0.62279887  1.0
  O  O10160  1  0.08848638  0.45597516  0.62279887  1.0
  O  O10161  1  0.08848638  0.62264183  0.62279887  1.0
  O  O10162  1  0.08848638  0.78930850  0.62279887  1.0
  O  O10163  1  0.08848638  0.95597516  0.62279887  1.0
  O  O10164  1  0.17181972  0.12264183  0.62279887  1.0
  O  O10165  1  0.17181972  0.28930850  0.62279887  1.0
  O  O10166  1  0.17181972  0.45597516  0.62279887  1.0
  O  O10167  1  0.17181972  0.62264183  0.62279887  1.0
  O  O10168  1  0.17181972  0.78930850  0.62279887  1.0
  O  O10169  1  0.17181972  0.95597516  0.62279887  1.0
  O  O10170  1  0.25515305  0.12264183  0.62279887  1.0
  O  O10171  1  0.25515305  0.28930850  0.62279887  1.0
  O  O10172  1  0.25515305  0.45597516  0.62279887  1.0
  O  O10173  1  0.25515305  0.62264183  0.62279887  1.0
  O  O10174  1  0.25515305  0.78930850  0.62279887  1.0
  O  O10175  1  0.25515305  0.95597516  0.62279887  1.0
  O  O10176  1  0.33848638  0.12264183  0.62279887  1.0
  O  O10177  1  0.33848638  0.28930850  0.62279887  1.0
  O  O10178  1  0.33848638  0.45597516  0.62279887  1.0
  O  O10179  1  0.33848638  0.62264183  0.62279887  1.0
  O  O10180  1  0.33848638  0.78930850  0.62279887  1.0
  O  O10181  1  0.33848638  0.95597516  0.62279887  1.0
  O  O10182  1  0.42181972  0.12264183  0.62279887  1.0
  O  O10183  1  0.42181972  0.28930850  0.62279887  1.0
  O  O10184  1  0.42181972  0.45597516  0.62279887  1.0
  O  O10185  1  0.42181972  0.62264183  0.62279887  1.0
  O  O10186  1  0.42181972  0.78930850  0.62279887  1.0
  O  O10187  1  0.42181972  0.95597516  0.62279887  1.0
  O  O10188  1  0.50515305  0.12264183  0.62279887  1.0
  O  O10189  1  0.50515305  0.28930850  0.62279887  1.0
  O  O10190  1  0.50515305  0.45597516  0.62279887  1.0
  O  O10191  1  0.50515305  0.62264183  0.62279887  1.0
  O  O10192  1  0.50515305  0.78930850  0.62279887  1.0
  O  O10193  1  0.50515305  0.95597516  0.62279887  1.0
  O  O10194  1  0.58848638  0.12264183  0.62279887  1.0
  O  O10195  1  0.58848638  0.28930850  0.62279887  1.0
  O  O10196  1  0.58848638  0.45597516  0.62279887  1.0
  O  O10197  1  0.58848638  0.62264183  0.62279887  1.0
  O  O10198  1  0.58848638  0.78930850  0.62279887  1.0
  O  O10199  1  0.58848638  0.95597516  0.62279887  1.0
  O  O10200  1  0.67181972  0.12264183  0.62279887  1.0
  O  O10201  1  0.67181972  0.28930850  0.62279887  1.0
  O  O10202  1  0.67181972  0.45597516  0.62279887  1.0
  O  O10203  1  0.67181972  0.62264183  0.62279887  1.0
  O  O10204  1  0.67181972  0.78930850  0.62279887  1.0
  O  O10205  1  0.67181972  0.95597516  0.62279887  1.0
  O  O10206  1  0.75515305  0.12264183  0.62279887  1.0
  O  O10207  1  0.75515305  0.28930850  0.62279887  1.0
  O  O10208  1  0.75515305  0.45597516  0.62279887  1.0
  O  O10209  1  0.75515305  0.62264183  0.62279887  1.0
  O  O10210  1  0.75515305  0.78930850  0.62279887  1.0
  O  O10211  1  0.75515305  0.95597516  0.62279887  1.0
  O  O10212  1  0.83848638  0.12264183  0.62279887  1.0
  O  O10213  1  0.83848638  0.28930850  0.62279887  1.0
  O  O10214  1  0.83848638  0.45597516  0.62279887  1.0
  O  O10215  1  0.83848638  0.62264183  0.62279887  1.0
  O  O10216  1  0.83848638  0.78930850  0.62279887  1.0
  O  O10217  1  0.83848638  0.95597516  0.62279887  1.0
  O  O10218  1  0.92181972  0.12264183  0.62279887  1.0
  O  O10219  1  0.92181972  0.28930850  0.62279887  1.0
  O  O10220  1  0.92181972  0.45597516  0.62279887  1.0
  O  O10221  1  0.92181972  0.62264183  0.62279887  1.0
  O  O10222  1  0.92181972  0.78930850  0.62279887  1.0
  O  O10223  1  0.92181972  0.95597516  0.62279887  1.0
  O  O10224  1  0.08201469  0.14122143  0.51521250  1.0
  O  O10225  1  0.08201469  0.30788809  0.51521250  1.0
  O  O10226  1  0.08201469  0.47455476  0.51521250  1.0
  O  O10227  1  0.08201469  0.64122143  0.51521250  1.0
  O  O10228  1  0.08201469  0.80788809  0.51521250  1.0
  O  O10229  1  0.08201469  0.97455476  0.51521250  1.0
  O  O10230  1  0.16534802  0.14122143  0.51521250  1.0
  O  O10231  1  0.16534802  0.30788809  0.51521250  1.0
  O  O10232  1  0.16534802  0.47455476  0.51521250  1.0
  O  O10233  1  0.16534802  0.64122143  0.51521250  1.0
  O  O10234  1  0.16534802  0.80788809  0.51521250  1.0
  O  O10235  1  0.16534802  0.97455476  0.51521250  1.0
  O  O10236  1  0.24868136  0.14122143  0.51521250  1.0
  O  O10237  1  0.24868136  0.30788809  0.51521250  1.0
  O  O10238  1  0.24868136  0.47455476  0.51521250  1.0
  O  O10239  1  0.24868136  0.64122143  0.51521250  1.0
  O  O10240  1  0.24868136  0.80788809  0.51521250  1.0
  O  O10241  1  0.24868136  0.97455476  0.51521250  1.0
  O  O10242  1  0.33201469  0.14122143  0.51521250  1.0
  O  O10243  1  0.33201469  0.30788809  0.51521250  1.0
  O  O10244  1  0.33201469  0.47455476  0.51521250  1.0
  O  O10245  1  0.33201469  0.64122143  0.51521250  1.0
  O  O10246  1  0.33201469  0.80788809  0.51521250  1.0
  O  O10247  1  0.33201469  0.97455476  0.51521250  1.0
  O  O10248  1  0.41534802  0.14122143  0.51521250  1.0
  O  O10249  1  0.41534802  0.30788809  0.51521250  1.0
  O  O10250  1  0.41534802  0.47455476  0.51521250  1.0
  O  O10251  1  0.41534802  0.64122143  0.51521250  1.0
  O  O10252  1  0.41534802  0.80788809  0.51521250  1.0
  O  O10253  1  0.41534802  0.97455476  0.51521250  1.0
  O  O10254  1  0.49868136  0.14122143  0.51521250  1.0
  O  O10255  1  0.49868136  0.30788809  0.51521250  1.0
  O  O10256  1  0.49868136  0.47455476  0.51521250  1.0
  O  O10257  1  0.49868136  0.64122143  0.51521250  1.0
  O  O10258  1  0.49868136  0.80788809  0.51521250  1.0
  O  O10259  1  0.49868136  0.97455476  0.51521250  1.0
  O  O10260  1  0.58201469  0.14122143  0.51521250  1.0
  O  O10261  1  0.58201469  0.30788809  0.51521250  1.0
  O  O10262  1  0.58201469  0.47455476  0.51521250  1.0
  O  O10263  1  0.58201469  0.64122143  0.51521250  1.0
  O  O10264  1  0.58201469  0.80788809  0.51521250  1.0
  O  O10265  1  0.58201469  0.97455476  0.51521250  1.0
  O  O10266  1  0.66534802  0.14122143  0.51521250  1.0
  O  O10267  1  0.66534802  0.30788809  0.51521250  1.0
  O  O10268  1  0.66534802  0.47455476  0.51521250  1.0
  O  O10269  1  0.66534802  0.64122143  0.51521250  1.0
  O  O10270  1  0.66534802  0.80788809  0.51521250  1.0
  O  O10271  1  0.66534802  0.97455476  0.51521250  1.0
  O  O10272  1  0.74868136  0.14122143  0.51521250  1.0
  O  O10273  1  0.74868136  0.30788809  0.51521250  1.0
  O  O10274  1  0.74868136  0.47455476  0.51521250  1.0
  O  O10275  1  0.74868136  0.64122143  0.51521250  1.0
  O  O10276  1  0.74868136  0.80788809  0.51521250  1.0
  O  O10277  1  0.74868136  0.97455476  0.51521250  1.0
  O  O10278  1  0.83201469  0.14122143  0.51521250  1.0
  O  O10279  1  0.83201469  0.30788809  0.51521250  1.0
  O  O10280  1  0.83201469  0.47455476  0.51521250  1.0
  O  O10281  1  0.83201469  0.64122143  0.51521250  1.0
  O  O10282  1  0.83201469  0.80788809  0.51521250  1.0
  O  O10283  1  0.83201469  0.97455476  0.51521250  1.0
  O  O10284  1  0.91534802  0.14122143  0.51521250  1.0
  O  O10285  1  0.91534802  0.30788809  0.51521250  1.0
  O  O10286  1  0.91534802  0.47455476  0.51521250  1.0
  O  O10287  1  0.91534802  0.64122143  0.51521250  1.0
  O  O10288  1  0.91534802  0.80788809  0.51521250  1.0
  O  O10289  1  0.91534802  0.97455476  0.51521250  1.0
  O  O10290  1  0.99868136  0.14122143  0.51521250  1.0
  O  O10291  1  0.99868136  0.30788809  0.51521250  1.0
  O  O10292  1  0.99868136  0.47455476  0.51521250  1.0
  O  O10293  1  0.99868136  0.64122143  0.51521250  1.0
  O  O10294  1  0.99868136  0.80788809  0.51521250  1.0
  O  O10295  1  0.99868136  0.97455476  0.51521250  1.0
  O  O10296  1  0.05820517  0.12931667  0.58664107  1.0
  O  O10297  1  0.05820517  0.29598333  0.58664107  1.0
  O  O10298  1  0.05820517  0.46265000  0.58664107  1.0
  O  O10299  1  0.05820517  0.62931667  0.58664107  1.0
  O  O10300  1  0.05820517  0.79598333  0.58664107  1.0
  O  O10301  1  0.05820517  0.96265000  0.58664107  1.0
  O  O10302  1  0.14153850  0.12931667  0.58664107  1.0
  O  O10303  1  0.14153850  0.29598333  0.58664107  1.0
  O  O10304  1  0.14153850  0.46265000  0.58664107  1.0
  O  O10305  1  0.14153850  0.62931667  0.58664107  1.0
  O  O10306  1  0.14153850  0.79598333  0.58664107  1.0
  O  O10307  1  0.14153850  0.96265000  0.58664107  1.0
  O  O10308  1  0.22487183  0.12931667  0.58664107  1.0
  O  O10309  1  0.22487183  0.29598333  0.58664107  1.0
  O  O10310  1  0.22487183  0.46265000  0.58664107  1.0
  O  O10311  1  0.22487183  0.62931667  0.58664107  1.0
  O  O10312  1  0.22487183  0.79598333  0.58664107  1.0
  O  O10313  1  0.22487183  0.96265000  0.58664107  1.0
  O  O10314  1  0.30820517  0.12931667  0.58664107  1.0
  O  O10315  1  0.30820517  0.29598333  0.58664107  1.0
  O  O10316  1  0.30820517  0.46265000  0.58664107  1.0
  O  O10317  1  0.30820517  0.62931667  0.58664107  1.0
  O  O10318  1  0.30820517  0.79598333  0.58664107  1.0
  O  O10319  1  0.30820517  0.96265000  0.58664107  1.0
  O  O10320  1  0.39153850  0.12931667  0.58664107  1.0
  O  O10321  1  0.39153850  0.29598333  0.58664107  1.0
  O  O10322  1  0.39153850  0.46265000  0.58664107  1.0
  O  O10323  1  0.39153850  0.62931667  0.58664107  1.0
  O  O10324  1  0.39153850  0.79598333  0.58664107  1.0
  O  O10325  1  0.39153850  0.96265000  0.58664107  1.0
  O  O10326  1  0.47487183  0.12931667  0.58664107  1.0
  O  O10327  1  0.47487183  0.29598333  0.58664107  1.0
  O  O10328  1  0.47487183  0.46265000  0.58664107  1.0
  O  O10329  1  0.47487183  0.62931667  0.58664107  1.0
  O  O10330  1  0.47487183  0.79598333  0.58664107  1.0
  O  O10331  1  0.47487183  0.96265000  0.58664107  1.0
  O  O10332  1  0.55820517  0.12931667  0.58664107  1.0
  O  O10333  1  0.55820517  0.29598333  0.58664107  1.0
  O  O10334  1  0.55820517  0.46265000  0.58664107  1.0
  O  O10335  1  0.55820517  0.62931667  0.58664107  1.0
  O  O10336  1  0.55820517  0.79598333  0.58664107  1.0
  O  O10337  1  0.55820517  0.96265000  0.58664107  1.0
  O  O10338  1  0.64153850  0.12931667  0.58664107  1.0
  O  O10339  1  0.64153850  0.29598333  0.58664107  1.0
  O  O10340  1  0.64153850  0.46265000  0.58664107  1.0
  O  O10341  1  0.64153850  0.62931667  0.58664107  1.0
  O  O10342  1  0.64153850  0.79598333  0.58664107  1.0
  O  O10343  1  0.64153850  0.96265000  0.58664107  1.0
  O  O10344  1  0.72487183  0.12931667  0.58664107  1.0
  O  O10345  1  0.72487183  0.29598333  0.58664107  1.0
  O  O10346  1  0.72487183  0.46265000  0.58664107  1.0
  O  O10347  1  0.72487183  0.62931667  0.58664107  1.0
  O  O10348  1  0.72487183  0.79598333  0.58664107  1.0
  O  O10349  1  0.72487183  0.96265000  0.58664107  1.0
  O  O10350  1  0.80820517  0.12931667  0.58664107  1.0
  O  O10351  1  0.80820517  0.29598333  0.58664107  1.0
  O  O10352  1  0.80820517  0.46265000  0.58664107  1.0
  O  O10353  1  0.80820517  0.62931667  0.58664107  1.0
  O  O10354  1  0.80820517  0.79598333  0.58664107  1.0
  O  O10355  1  0.80820517  0.96265000  0.58664107  1.0
  O  O10356  1  0.89153850  0.12931667  0.58664107  1.0
  O  O10357  1  0.89153850  0.29598333  0.58664107  1.0
  O  O10358  1  0.89153850  0.46265000  0.58664107  1.0
  O  O10359  1  0.89153850  0.62931667  0.58664107  1.0
  O  O10360  1  0.89153850  0.79598333  0.58664107  1.0
  O  O10361  1  0.89153850  0.96265000  0.58664107  1.0
  O  O10362  1  0.97487183  0.12931667  0.58664107  1.0
  O  O10363  1  0.97487183  0.29598333  0.58664107  1.0
  O  O10364  1  0.97487183  0.46265000  0.58664107  1.0
  O  O10365  1  0.97487183  0.62931667  0.58664107  1.0
  O  O10366  1  0.97487183  0.79598333  0.58664107  1.0
  O  O10367  1  0.97487183  0.96265000  0.58664107  1.0
  O  O10368  1  0.07918499  0.01951007  0.52461359  1.0
  O  O10369  1  0.07918499  0.18617674  0.52461359  1.0
  O  O10370  1  0.07918499  0.35284340  0.52461359  1.0
  O  O10371  1  0.07918499  0.51951007  0.52461359  1.0
  O  O10372  1  0.07918499  0.68617674  0.52461359  1.0
  O  O10373  1  0.07918499  0.85284340  0.52461359  1.0
  O  O10374  1  0.16251832  0.01951007  0.52461359  1.0
  O  O10375  1  0.16251832  0.18617674  0.52461359  1.0
  O  O10376  1  0.16251832  0.35284340  0.52461359  1.0
  O  O10377  1  0.16251832  0.51951007  0.52461359  1.0
  O  O10378  1  0.16251832  0.68617674  0.52461359  1.0
  O  O10379  1  0.16251832  0.85284340  0.52461359  1.0
  O  O10380  1  0.24585165  0.01951007  0.52461359  1.0
  O  O10381  1  0.24585165  0.18617674  0.52461359  1.0
  O  O10382  1  0.24585165  0.35284340  0.52461359  1.0
  O  O10383  1  0.24585165  0.51951007  0.52461359  1.0
  O  O10384  1  0.24585165  0.68617674  0.52461359  1.0
  O  O10385  1  0.24585165  0.85284340  0.52461359  1.0
  O  O10386  1  0.32918499  0.01951007  0.52461359  1.0
  O  O10387  1  0.32918499  0.18617674  0.52461359  1.0
  O  O10388  1  0.32918499  0.35284340  0.52461359  1.0
  O  O10389  1  0.32918499  0.51951007  0.52461359  1.0
  O  O10390  1  0.32918499  0.68617674  0.52461359  1.0
  O  O10391  1  0.32918499  0.85284340  0.52461359  1.0
  O  O10392  1  0.41251832  0.01951007  0.52461359  1.0
  O  O10393  1  0.41251832  0.18617674  0.52461359  1.0
  O  O10394  1  0.41251832  0.35284340  0.52461359  1.0
  O  O10395  1  0.41251832  0.51951007  0.52461359  1.0
  O  O10396  1  0.41251832  0.68617674  0.52461359  1.0
  O  O10397  1  0.41251832  0.85284340  0.52461359  1.0
  O  O10398  1  0.49585165  0.01951007  0.52461359  1.0
  O  O10399  1  0.49585165  0.18617674  0.52461359  1.0
  O  O10400  1  0.49585165  0.35284340  0.52461359  1.0
  O  O10401  1  0.49585165  0.51951007  0.52461359  1.0
  O  O10402  1  0.49585165  0.68617674  0.52461359  1.0
  O  O10403  1  0.49585165  0.85284340  0.52461359  1.0
  O  O10404  1  0.57918499  0.01951007  0.52461359  1.0
  O  O10405  1  0.57918499  0.18617674  0.52461359  1.0
  O  O10406  1  0.57918499  0.35284340  0.52461359  1.0
  O  O10407  1  0.57918499  0.51951007  0.52461359  1.0
  O  O10408  1  0.57918499  0.68617674  0.52461359  1.0
  O  O10409  1  0.57918499  0.85284340  0.52461359  1.0
  O  O10410  1  0.66251832  0.01951007  0.52461359  1.0
  O  O10411  1  0.66251832  0.18617674  0.52461359  1.0
  O  O10412  1  0.66251832  0.35284340  0.52461359  1.0
  O  O10413  1  0.66251832  0.51951007  0.52461359  1.0
  O  O10414  1  0.66251832  0.68617674  0.52461359  1.0
  O  O10415  1  0.66251832  0.85284340  0.52461359  1.0
  O  O10416  1  0.74585165  0.01951007  0.52461359  1.0
  O  O10417  1  0.74585165  0.18617674  0.52461359  1.0
  O  O10418  1  0.74585165  0.35284340  0.52461359  1.0
  O  O10419  1  0.74585165  0.51951007  0.52461359  1.0
  O  O10420  1  0.74585165  0.68617674  0.52461359  1.0
  O  O10421  1  0.74585165  0.85284340  0.52461359  1.0
  O  O10422  1  0.82918499  0.01951007  0.52461359  1.0
  O  O10423  1  0.82918499  0.18617674  0.52461359  1.0
  O  O10424  1  0.82918499  0.35284340  0.52461359  1.0
  O  O10425  1  0.82918499  0.51951007  0.52461359  1.0
  O  O10426  1  0.82918499  0.68617674  0.52461359  1.0
  O  O10427  1  0.82918499  0.85284340  0.52461359  1.0
  O  O10428  1  0.91251832  0.01951007  0.52461359  1.0
  O  O10429  1  0.91251832  0.18617674  0.52461359  1.0
  O  O10430  1  0.91251832  0.35284340  0.52461359  1.0
  O  O10431  1  0.91251832  0.51951007  0.52461359  1.0
  O  O10432  1  0.91251832  0.68617674  0.52461359  1.0
  O  O10433  1  0.91251832  0.85284340  0.52461359  1.0
  O  O10434  1  0.99585165  0.01951007  0.52461359  1.0
  O  O10435  1  0.99585165  0.18617674  0.52461359  1.0
  O  O10436  1  0.99585165  0.35284340  0.52461359  1.0
  O  O10437  1  0.99585165  0.51951007  0.52461359  1.0
  O  O10438  1  0.99585165  0.68617674  0.52461359  1.0
  O  O10439  1  0.99585165  0.85284340  0.52461359  1.0
  O  O10440  1  0.05537546  0.00760531  0.59604216  1.0
  O  O10441  1  0.05537546  0.17427198  0.59604216  1.0
  O  O10442  1  0.05537546  0.34093864  0.59604216  1.0
  O  O10443  1  0.05537546  0.50760531  0.59604216  1.0
  O  O10444  1  0.05537546  0.67427198  0.59604216  1.0
  O  O10445  1  0.05537546  0.84093864  0.59604216  1.0
  O  O10446  1  0.13870880  0.00760531  0.59604216  1.0
  O  O10447  1  0.13870880  0.17427198  0.59604216  1.0
  O  O10448  1  0.13870880  0.34093864  0.59604216  1.0
  O  O10449  1  0.13870880  0.50760531  0.59604216  1.0
  O  O10450  1  0.13870880  0.67427198  0.59604216  1.0
  O  O10451  1  0.13870880  0.84093864  0.59604216  1.0
  O  O10452  1  0.22204213  0.00760531  0.59604216  1.0
  O  O10453  1  0.22204213  0.17427198  0.59604216  1.0
  O  O10454  1  0.22204213  0.34093864  0.59604216  1.0
  O  O10455  1  0.22204213  0.50760531  0.59604216  1.0
  O  O10456  1  0.22204213  0.67427198  0.59604216  1.0
  O  O10457  1  0.22204213  0.84093864  0.59604216  1.0
  O  O10458  1  0.30537546  0.00760531  0.59604216  1.0
  O  O10459  1  0.30537546  0.17427198  0.59604216  1.0
  O  O10460  1  0.30537546  0.34093864  0.59604216  1.0
  O  O10461  1  0.30537546  0.50760531  0.59604216  1.0
  O  O10462  1  0.30537546  0.67427198  0.59604216  1.0
  O  O10463  1  0.30537546  0.84093864  0.59604216  1.0
  O  O10464  1  0.38870880  0.00760531  0.59604216  1.0
  O  O10465  1  0.38870880  0.17427198  0.59604216  1.0
  O  O10466  1  0.38870880  0.34093864  0.59604216  1.0
  O  O10467  1  0.38870880  0.50760531  0.59604216  1.0
  O  O10468  1  0.38870880  0.67427198  0.59604216  1.0
  O  O10469  1  0.38870880  0.84093864  0.59604216  1.0
  O  O10470  1  0.47204213  0.00760531  0.59604216  1.0
  O  O10471  1  0.47204213  0.17427198  0.59604216  1.0
  O  O10472  1  0.47204213  0.34093864  0.59604216  1.0
  O  O10473  1  0.47204213  0.50760531  0.59604216  1.0
  O  O10474  1  0.47204213  0.67427198  0.59604216  1.0
  O  O10475  1  0.47204213  0.84093864  0.59604216  1.0
  O  O10476  1  0.55537546  0.00760531  0.59604216  1.0
  O  O10477  1  0.55537546  0.17427198  0.59604216  1.0
  O  O10478  1  0.55537546  0.34093864  0.59604216  1.0
  O  O10479  1  0.55537546  0.50760531  0.59604216  1.0
  O  O10480  1  0.55537546  0.67427198  0.59604216  1.0
  O  O10481  1  0.55537546  0.84093864  0.59604216  1.0
  O  O10482  1  0.63870880  0.00760531  0.59604216  1.0
  O  O10483  1  0.63870880  0.17427198  0.59604216  1.0
  O  O10484  1  0.63870880  0.34093864  0.59604216  1.0
  O  O10485  1  0.63870880  0.50760531  0.59604216  1.0
  O  O10486  1  0.63870880  0.67427198  0.59604216  1.0
  O  O10487  1  0.63870880  0.84093864  0.59604216  1.0
  O  O10488  1  0.72204213  0.00760531  0.59604216  1.0
  O  O10489  1  0.72204213  0.17427198  0.59604216  1.0
  O  O10490  1  0.72204213  0.34093864  0.59604216  1.0
  O  O10491  1  0.72204213  0.50760531  0.59604216  1.0
  O  O10492  1  0.72204213  0.67427198  0.59604216  1.0
  O  O10493  1  0.72204213  0.84093864  0.59604216  1.0
  O  O10494  1  0.80537546  0.00760531  0.59604216  1.0
  O  O10495  1  0.80537546  0.17427198  0.59604216  1.0
  O  O10496  1  0.80537546  0.34093864  0.59604216  1.0
  O  O10497  1  0.80537546  0.50760531  0.59604216  1.0
  O  O10498  1  0.80537546  0.67427198  0.59604216  1.0
  O  O10499  1  0.80537546  0.84093864  0.59604216  1.0
  O  O10500  1  0.88870880  0.00760531  0.59604216  1.0
  O  O10501  1  0.88870880  0.17427198  0.59604216  1.0
  O  O10502  1  0.88870880  0.34093864  0.59604216  1.0
  O  O10503  1  0.88870880  0.50760531  0.59604216  1.0
  O  O10504  1  0.88870880  0.67427198  0.59604216  1.0
  O  O10505  1  0.88870880  0.84093864  0.59604216  1.0
  O  O10506  1  0.97204213  0.00760531  0.59604216  1.0
  O  O10507  1  0.97204213  0.17427198  0.59604216  1.0
  O  O10508  1  0.97204213  0.34093864  0.59604216  1.0
  O  O10509  1  0.97204213  0.50760531  0.59604216  1.0
  O  O10510  1  0.97204213  0.67427198  0.59604216  1.0
  O  O10511  1  0.97204213  0.84093864  0.59604216  1.0
  O  O10512  1  0.07664138  0.06607934  0.53663972  1.0
  O  O10513  1  0.07664138  0.23274601  0.53663972  1.0
  O  O10514  1  0.07664138  0.39941268  0.53663972  1.0
  O  O10515  1  0.07664138  0.56607934  0.53663972  1.0
  O  O10516  1  0.07664138  0.73274601  0.53663972  1.0
  O  O10517  1  0.07664138  0.89941268  0.53663972  1.0
  O  O10518  1  0.15997471  0.06607934  0.53663972  1.0
  O  O10519  1  0.15997471  0.23274601  0.53663972  1.0
  O  O10520  1  0.15997471  0.39941268  0.53663972  1.0
  O  O10521  1  0.15997471  0.56607934  0.53663972  1.0
  O  O10522  1  0.15997471  0.73274601  0.53663972  1.0
  O  O10523  1  0.15997471  0.89941268  0.53663972  1.0
  O  O10524  1  0.24330804  0.06607934  0.53663972  1.0
  O  O10525  1  0.24330804  0.23274601  0.53663972  1.0
  O  O10526  1  0.24330804  0.39941268  0.53663972  1.0
  O  O10527  1  0.24330804  0.56607934  0.53663972  1.0
  O  O10528  1  0.24330804  0.73274601  0.53663972  1.0
  O  O10529  1  0.24330804  0.89941268  0.53663972  1.0
  O  O10530  1  0.32664138  0.06607934  0.53663972  1.0
  O  O10531  1  0.32664138  0.23274601  0.53663972  1.0
  O  O10532  1  0.32664138  0.39941268  0.53663972  1.0
  O  O10533  1  0.32664138  0.56607934  0.53663972  1.0
  O  O10534  1  0.32664138  0.73274601  0.53663972  1.0
  O  O10535  1  0.32664138  0.89941268  0.53663972  1.0
  O  O10536  1  0.40997471  0.06607934  0.53663972  1.0
  O  O10537  1  0.40997471  0.23274601  0.53663972  1.0
  O  O10538  1  0.40997471  0.39941268  0.53663972  1.0
  O  O10539  1  0.40997471  0.56607934  0.53663972  1.0
  O  O10540  1  0.40997471  0.73274601  0.53663972  1.0
  O  O10541  1  0.40997471  0.89941268  0.53663972  1.0
  O  O10542  1  0.49330804  0.06607934  0.53663972  1.0
  O  O10543  1  0.49330804  0.23274601  0.53663972  1.0
  O  O10544  1  0.49330804  0.39941268  0.53663972  1.0
  O  O10545  1  0.49330804  0.56607934  0.53663972  1.0
  O  O10546  1  0.49330804  0.73274601  0.53663972  1.0
  O  O10547  1  0.49330804  0.89941268  0.53663972  1.0
  O  O10548  1  0.57664138  0.06607934  0.53663972  1.0
  O  O10549  1  0.57664138  0.23274601  0.53663972  1.0
  O  O10550  1  0.57664138  0.39941268  0.53663972  1.0
  O  O10551  1  0.57664138  0.56607934  0.53663972  1.0
  O  O10552  1  0.57664138  0.73274601  0.53663972  1.0
  O  O10553  1  0.57664138  0.89941268  0.53663972  1.0
  O  O10554  1  0.65997471  0.06607934  0.53663972  1.0
  O  O10555  1  0.65997471  0.23274601  0.53663972  1.0
  O  O10556  1  0.65997471  0.39941268  0.53663972  1.0
  O  O10557  1  0.65997471  0.56607934  0.53663972  1.0
  O  O10558  1  0.65997471  0.73274601  0.53663972  1.0
  O  O10559  1  0.65997471  0.89941268  0.53663972  1.0
  O  O10560  1  0.74330804  0.06607934  0.53663972  1.0
  O  O10561  1  0.74330804  0.23274601  0.53663972  1.0
  O  O10562  1  0.74330804  0.39941268  0.53663972  1.0
  O  O10563  1  0.74330804  0.56607934  0.53663972  1.0
  O  O10564  1  0.74330804  0.73274601  0.53663972  1.0
  O  O10565  1  0.74330804  0.89941268  0.53663972  1.0
  O  O10566  1  0.82664138  0.06607934  0.53663972  1.0
  O  O10567  1  0.82664138  0.23274601  0.53663972  1.0
  O  O10568  1  0.82664138  0.39941268  0.53663972  1.0
  O  O10569  1  0.82664138  0.56607934  0.53663972  1.0
  O  O10570  1  0.82664138  0.73274601  0.53663972  1.0
  O  O10571  1  0.82664138  0.89941268  0.53663972  1.0
  O  O10572  1  0.90997471  0.06607934  0.53663972  1.0
  O  O10573  1  0.90997471  0.23274601  0.53663972  1.0
  O  O10574  1  0.90997471  0.39941268  0.53663972  1.0
  O  O10575  1  0.90997471  0.56607934  0.53663972  1.0
  O  O10576  1  0.90997471  0.73274601  0.53663972  1.0
  O  O10577  1  0.90997471  0.89941268  0.53663972  1.0
  O  O10578  1  0.99330804  0.06607934  0.53663972  1.0
  O  O10579  1  0.99330804  0.23274601  0.53663972  1.0
  O  O10580  1  0.99330804  0.39941268  0.53663972  1.0
  O  O10581  1  0.99330804  0.56607934  0.53663972  1.0
  O  O10582  1  0.99330804  0.73274601  0.53663972  1.0
  O  O10583  1  0.99330804  0.89941268  0.53663972  1.0
  O  O10584  1  0.05283185  0.05417458  0.60806829  1.0
  O  O10585  1  0.05283185  0.22084125  0.60806829  1.0
  O  O10586  1  0.05283185  0.38750792  0.60806829  1.0
  O  O10587  1  0.05283185  0.55417458  0.60806829  1.0
  O  O10588  1  0.05283185  0.72084125  0.60806829  1.0
  O  O10589  1  0.05283185  0.88750792  0.60806829  1.0
  O  O10590  1  0.13616519  0.05417458  0.60806829  1.0
  O  O10591  1  0.13616519  0.22084125  0.60806829  1.0
  O  O10592  1  0.13616519  0.38750792  0.60806829  1.0
  O  O10593  1  0.13616519  0.55417458  0.60806829  1.0
  O  O10594  1  0.13616519  0.72084125  0.60806829  1.0
  O  O10595  1  0.13616519  0.88750792  0.60806829  1.0
  O  O10596  1  0.21949852  0.05417458  0.60806829  1.0
  O  O10597  1  0.21949852  0.22084125  0.60806829  1.0
  O  O10598  1  0.21949852  0.38750792  0.60806829  1.0
  O  O10599  1  0.21949852  0.55417458  0.60806829  1.0
  O  O10600  1  0.21949852  0.72084125  0.60806829  1.0
  O  O10601  1  0.21949852  0.88750792  0.60806829  1.0
  O  O10602  1  0.30283185  0.05417458  0.60806829  1.0
  O  O10603  1  0.30283185  0.22084125  0.60806829  1.0
  O  O10604  1  0.30283185  0.38750792  0.60806829  1.0
  O  O10605  1  0.30283185  0.55417458  0.60806829  1.0
  O  O10606  1  0.30283185  0.72084125  0.60806829  1.0
  O  O10607  1  0.30283185  0.88750792  0.60806829  1.0
  O  O10608  1  0.38616519  0.05417458  0.60806829  1.0
  O  O10609  1  0.38616519  0.22084125  0.60806829  1.0
  O  O10610  1  0.38616519  0.38750792  0.60806829  1.0
  O  O10611  1  0.38616519  0.55417458  0.60806829  1.0
  O  O10612  1  0.38616519  0.72084125  0.60806829  1.0
  O  O10613  1  0.38616519  0.88750792  0.60806829  1.0
  O  O10614  1  0.46949852  0.05417458  0.60806829  1.0
  O  O10615  1  0.46949852  0.22084125  0.60806829  1.0
  O  O10616  1  0.46949852  0.38750792  0.60806829  1.0
  O  O10617  1  0.46949852  0.55417458  0.60806829  1.0
  O  O10618  1  0.46949852  0.72084125  0.60806829  1.0
  O  O10619  1  0.46949852  0.88750792  0.60806829  1.0
  O  O10620  1  0.55283185  0.05417458  0.60806829  1.0
  O  O10621  1  0.55283185  0.22084125  0.60806829  1.0
  O  O10622  1  0.55283185  0.38750792  0.60806829  1.0
  O  O10623  1  0.55283185  0.55417458  0.60806829  1.0
  O  O10624  1  0.55283185  0.72084125  0.60806829  1.0
  O  O10625  1  0.55283185  0.88750792  0.60806829  1.0
  O  O10626  1  0.63616519  0.05417458  0.60806829  1.0
  O  O10627  1  0.63616519  0.22084125  0.60806829  1.0
  O  O10628  1  0.63616519  0.38750792  0.60806829  1.0
  O  O10629  1  0.63616519  0.55417458  0.60806829  1.0
  O  O10630  1  0.63616519  0.72084125  0.60806829  1.0
  O  O10631  1  0.63616519  0.88750792  0.60806829  1.0
  O  O10632  1  0.71949852  0.05417458  0.60806829  1.0
  O  O10633  1  0.71949852  0.22084125  0.60806829  1.0
  O  O10634  1  0.71949852  0.38750792  0.60806829  1.0
  O  O10635  1  0.71949852  0.55417458  0.60806829  1.0
  O  O10636  1  0.71949852  0.72084125  0.60806829  1.0
  O  O10637  1  0.71949852  0.88750792  0.60806829  1.0
  O  O10638  1  0.80283185  0.05417458  0.60806829  1.0
  O  O10639  1  0.80283185  0.22084125  0.60806829  1.0
  O  O10640  1  0.80283185  0.38750792  0.60806829  1.0
  O  O10641  1  0.80283185  0.55417458  0.60806829  1.0
  O  O10642  1  0.80283185  0.72084125  0.60806829  1.0
  O  O10643  1  0.80283185  0.88750792  0.60806829  1.0
  O  O10644  1  0.88616519  0.05417458  0.60806829  1.0
  O  O10645  1  0.88616519  0.22084125  0.60806829  1.0
  O  O10646  1  0.88616519  0.38750792  0.60806829  1.0
  O  O10647  1  0.88616519  0.55417458  0.60806829  1.0
  O  O10648  1  0.88616519  0.72084125  0.60806829  1.0
  O  O10649  1  0.88616519  0.88750792  0.60806829  1.0
  O  O10650  1  0.96949852  0.05417458  0.60806829  1.0
  O  O10651  1  0.96949852  0.22084125  0.60806829  1.0
  O  O10652  1  0.96949852  0.38750792  0.60806829  1.0
  O  O10653  1  0.96949852  0.55417458  0.60806829  1.0
  O  O10654  1  0.96949852  0.72084125  0.60806829  1.0
  O  O10655  1  0.96949852  0.88750792  0.60806829  1.0
  O  O10656  1  0.03918607  0.16387994  0.52020182  1.0
  O  O10657  1  0.03918607  0.33054661  0.52020182  1.0
  O  O10658  1  0.03918607  0.49721327  0.52020182  1.0
  O  O10659  1  0.03918607  0.66387994  0.52020182  1.0
  O  O10660  1  0.03918607  0.83054661  0.52020182  1.0
  O  O10661  1  0.03918607  0.99721327  0.52020182  1.0
  O  O10662  1  0.12251940  0.16387994  0.52020182  1.0
  O  O10663  1  0.12251940  0.33054661  0.52020182  1.0
  O  O10664  1  0.12251940  0.49721327  0.52020182  1.0
  O  O10665  1  0.12251940  0.66387994  0.52020182  1.0
  O  O10666  1  0.12251940  0.83054661  0.52020182  1.0
  O  O10667  1  0.12251940  0.99721327  0.52020182  1.0
  O  O10668  1  0.20585274  0.16387994  0.52020182  1.0
  O  O10669  1  0.20585274  0.33054661  0.52020182  1.0
  O  O10670  1  0.20585274  0.49721327  0.52020182  1.0
  O  O10671  1  0.20585274  0.66387994  0.52020182  1.0
  O  O10672  1  0.20585274  0.83054661  0.52020182  1.0
  O  O10673  1  0.20585274  0.99721327  0.52020182  1.0
  O  O10674  1  0.28918607  0.16387994  0.52020182  1.0
  O  O10675  1  0.28918607  0.33054661  0.52020182  1.0
  O  O10676  1  0.28918607  0.49721327  0.52020182  1.0
  O  O10677  1  0.28918607  0.66387994  0.52020182  1.0
  O  O10678  1  0.28918607  0.83054661  0.52020182  1.0
  O  O10679  1  0.28918607  0.99721327  0.52020182  1.0
  O  O10680  1  0.37251940  0.16387994  0.52020182  1.0
  O  O10681  1  0.37251940  0.33054661  0.52020182  1.0
  O  O10682  1  0.37251940  0.49721327  0.52020182  1.0
  O  O10683  1  0.37251940  0.66387994  0.52020182  1.0
  O  O10684  1  0.37251940  0.83054661  0.52020182  1.0
  O  O10685  1  0.37251940  0.99721327  0.52020182  1.0
  O  O10686  1  0.45585274  0.16387994  0.52020182  1.0
  O  O10687  1  0.45585274  0.33054661  0.52020182  1.0
  O  O10688  1  0.45585274  0.49721327  0.52020182  1.0
  O  O10689  1  0.45585274  0.66387994  0.52020182  1.0
  O  O10690  1  0.45585274  0.83054661  0.52020182  1.0
  O  O10691  1  0.45585274  0.99721327  0.52020182  1.0
  O  O10692  1  0.53918607  0.16387994  0.52020182  1.0
  O  O10693  1  0.53918607  0.33054661  0.52020182  1.0
  O  O10694  1  0.53918607  0.49721327  0.52020182  1.0
  O  O10695  1  0.53918607  0.66387994  0.52020182  1.0
  O  O10696  1  0.53918607  0.83054661  0.52020182  1.0
  O  O10697  1  0.53918607  0.99721327  0.52020182  1.0
  O  O10698  1  0.62251940  0.16387994  0.52020182  1.0
  O  O10699  1  0.62251940  0.33054661  0.52020182  1.0
  O  O10700  1  0.62251940  0.49721327  0.52020182  1.0
  O  O10701  1  0.62251940  0.66387994  0.52020182  1.0
  O  O10702  1  0.62251940  0.83054661  0.52020182  1.0
  O  O10703  1  0.62251940  0.99721327  0.52020182  1.0
  O  O10704  1  0.70585274  0.16387994  0.52020182  1.0
  O  O10705  1  0.70585274  0.33054661  0.52020182  1.0
  O  O10706  1  0.70585274  0.49721327  0.52020182  1.0
  O  O10707  1  0.70585274  0.66387994  0.52020182  1.0
  O  O10708  1  0.70585274  0.83054661  0.52020182  1.0
  O  O10709  1  0.70585274  0.99721327  0.52020182  1.0
  O  O10710  1  0.78918607  0.16387994  0.52020182  1.0
  O  O10711  1  0.78918607  0.33054661  0.52020182  1.0
  O  O10712  1  0.78918607  0.49721327  0.52020182  1.0
  O  O10713  1  0.78918607  0.66387994  0.52020182  1.0
  O  O10714  1  0.78918607  0.83054661  0.52020182  1.0
  O  O10715  1  0.78918607  0.99721327  0.52020182  1.0
  O  O10716  1  0.87251940  0.16387994  0.52020182  1.0
  O  O10717  1  0.87251940  0.33054661  0.52020182  1.0
  O  O10718  1  0.87251940  0.49721327  0.52020182  1.0
  O  O10719  1  0.87251940  0.66387994  0.52020182  1.0
  O  O10720  1  0.87251940  0.83054661  0.52020182  1.0
  O  O10721  1  0.87251940  0.99721327  0.52020182  1.0
  O  O10722  1  0.95585274  0.16387994  0.52020182  1.0
  O  O10723  1  0.95585274  0.33054661  0.52020182  1.0
  O  O10724  1  0.95585274  0.49721327  0.52020182  1.0
  O  O10725  1  0.95585274  0.66387994  0.52020182  1.0
  O  O10726  1  0.95585274  0.83054661  0.52020182  1.0
  O  O10727  1  0.95585274  0.99721327  0.52020182  1.0
  O  O10728  1  0.01537655  0.15197518  0.59163039  1.0
  O  O10729  1  0.01537655  0.31864184  0.59163039  1.0
  O  O10730  1  0.01537655  0.48530851  0.59163039  1.0
  O  O10731  1  0.01537655  0.65197518  0.59163039  1.0
  O  O10732  1  0.01537655  0.81864184  0.59163039  1.0
  O  O10733  1  0.01537655  0.98530851  0.59163039  1.0
  O  O10734  1  0.09870988  0.15197518  0.59163039  1.0
  O  O10735  1  0.09870988  0.31864184  0.59163039  1.0
  O  O10736  1  0.09870988  0.48530851  0.59163039  1.0
  O  O10737  1  0.09870988  0.65197518  0.59163039  1.0
  O  O10738  1  0.09870988  0.81864184  0.59163039  1.0
  O  O10739  1  0.09870988  0.98530851  0.59163039  1.0
  O  O10740  1  0.18204321  0.15197518  0.59163039  1.0
  O  O10741  1  0.18204321  0.31864184  0.59163039  1.0
  O  O10742  1  0.18204321  0.48530851  0.59163039  1.0
  O  O10743  1  0.18204321  0.65197518  0.59163039  1.0
  O  O10744  1  0.18204321  0.81864184  0.59163039  1.0
  O  O10745  1  0.18204321  0.98530851  0.59163039  1.0
  O  O10746  1  0.26537655  0.15197518  0.59163039  1.0
  O  O10747  1  0.26537655  0.31864184  0.59163039  1.0
  O  O10748  1  0.26537655  0.48530851  0.59163039  1.0
  O  O10749  1  0.26537655  0.65197518  0.59163039  1.0
  O  O10750  1  0.26537655  0.81864184  0.59163039  1.0
  O  O10751  1  0.26537655  0.98530851  0.59163039  1.0
  O  O10752  1  0.34870988  0.15197518  0.59163039  1.0
  O  O10753  1  0.34870988  0.31864184  0.59163039  1.0
  O  O10754  1  0.34870988  0.48530851  0.59163039  1.0
  O  O10755  1  0.34870988  0.65197518  0.59163039  1.0
  O  O10756  1  0.34870988  0.81864184  0.59163039  1.0
  O  O10757  1  0.34870988  0.98530851  0.59163039  1.0
  O  O10758  1  0.43204321  0.15197518  0.59163039  1.0
  O  O10759  1  0.43204321  0.31864184  0.59163039  1.0
  O  O10760  1  0.43204321  0.48530851  0.59163039  1.0
  O  O10761  1  0.43204321  0.65197518  0.59163039  1.0
  O  O10762  1  0.43204321  0.81864184  0.59163039  1.0
  O  O10763  1  0.43204321  0.98530851  0.59163039  1.0
  O  O10764  1  0.51537655  0.15197518  0.59163039  1.0
  O  O10765  1  0.51537655  0.31864184  0.59163039  1.0
  O  O10766  1  0.51537655  0.48530851  0.59163039  1.0
  O  O10767  1  0.51537655  0.65197518  0.59163039  1.0
  O  O10768  1  0.51537655  0.81864184  0.59163039  1.0
  O  O10769  1  0.51537655  0.98530851  0.59163039  1.0
  O  O10770  1  0.59870988  0.15197518  0.59163039  1.0
  O  O10771  1  0.59870988  0.31864184  0.59163039  1.0
  O  O10772  1  0.59870988  0.48530851  0.59163039  1.0
  O  O10773  1  0.59870988  0.65197518  0.59163039  1.0
  O  O10774  1  0.59870988  0.81864184  0.59163039  1.0
  O  O10775  1  0.59870988  0.98530851  0.59163039  1.0
  O  O10776  1  0.68204321  0.15197518  0.59163039  1.0
  O  O10777  1  0.68204321  0.31864184  0.59163039  1.0
  O  O10778  1  0.68204321  0.48530851  0.59163039  1.0
  O  O10779  1  0.68204321  0.65197518  0.59163039  1.0
  O  O10780  1  0.68204321  0.81864184  0.59163039  1.0
  O  O10781  1  0.68204321  0.98530851  0.59163039  1.0
  O  O10782  1  0.76537655  0.15197518  0.59163039  1.0
  O  O10783  1  0.76537655  0.31864184  0.59163039  1.0
  O  O10784  1  0.76537655  0.48530851  0.59163039  1.0
  O  O10785  1  0.76537655  0.65197518  0.59163039  1.0
  O  O10786  1  0.76537655  0.81864184  0.59163039  1.0
  O  O10787  1  0.76537655  0.98530851  0.59163039  1.0
  O  O10788  1  0.84870988  0.15197518  0.59163039  1.0
  O  O10789  1  0.84870988  0.31864184  0.59163039  1.0
  O  O10790  1  0.84870988  0.48530851  0.59163039  1.0
  O  O10791  1  0.84870988  0.65197518  0.59163039  1.0
  O  O10792  1  0.84870988  0.81864184  0.59163039  1.0
  O  O10793  1  0.84870988  0.98530851  0.59163039  1.0
  O  O10794  1  0.93204321  0.15197518  0.59163039  1.0
  O  O10795  1  0.93204321  0.31864184  0.59163039  1.0
  O  O10796  1  0.93204321  0.48530851  0.59163039  1.0
  O  O10797  1  0.93204321  0.65197518  0.59163039  1.0
  O  O10798  1  0.93204321  0.81864184  0.59163039  1.0
  O  O10799  1  0.93204321  0.98530851  0.59163039  1.0
  O  O10800  1  0.00297094  0.09537865  0.50585536  1.0
  O  O10801  1  0.00297094  0.26204532  0.50585536  1.0
  O  O10802  1  0.00297094  0.42871198  0.50585536  1.0
  O  O10803  1  0.00297094  0.59537865  0.50585536  1.0
  O  O10804  1  0.00297094  0.76204532  0.50585536  1.0
  O  O10805  1  0.00297094  0.92871198  0.50585536  1.0
  O  O10806  1  0.08630428  0.09537865  0.50585536  1.0
  O  O10807  1  0.08630428  0.26204532  0.50585536  1.0
  O  O10808  1  0.08630428  0.42871198  0.50585536  1.0
  O  O10809  1  0.08630428  0.59537865  0.50585536  1.0
  O  O10810  1  0.08630428  0.76204532  0.50585536  1.0
  O  O10811  1  0.08630428  0.92871198  0.50585536  1.0
  O  O10812  1  0.16963761  0.09537865  0.50585536  1.0
  O  O10813  1  0.16963761  0.26204532  0.50585536  1.0
  O  O10814  1  0.16963761  0.42871198  0.50585536  1.0
  O  O10815  1  0.16963761  0.59537865  0.50585536  1.0
  O  O10816  1  0.16963761  0.76204532  0.50585536  1.0
  O  O10817  1  0.16963761  0.92871198  0.50585536  1.0
  O  O10818  1  0.25297094  0.09537865  0.50585536  1.0
  O  O10819  1  0.25297094  0.26204532  0.50585536  1.0
  O  O10820  1  0.25297094  0.42871198  0.50585536  1.0
  O  O10821  1  0.25297094  0.59537865  0.50585536  1.0
  O  O10822  1  0.25297094  0.76204532  0.50585536  1.0
  O  O10823  1  0.25297094  0.92871198  0.50585536  1.0
  O  O10824  1  0.33630428  0.09537865  0.50585536  1.0
  O  O10825  1  0.33630428  0.26204532  0.50585536  1.0
  O  O10826  1  0.33630428  0.42871198  0.50585536  1.0
  O  O10827  1  0.33630428  0.59537865  0.50585536  1.0
  O  O10828  1  0.33630428  0.76204532  0.50585536  1.0
  O  O10829  1  0.33630428  0.92871198  0.50585536  1.0
  O  O10830  1  0.41963761  0.09537865  0.50585536  1.0
  O  O10831  1  0.41963761  0.26204532  0.50585536  1.0
  O  O10832  1  0.41963761  0.42871198  0.50585536  1.0
  O  O10833  1  0.41963761  0.59537865  0.50585536  1.0
  O  O10834  1  0.41963761  0.76204532  0.50585536  1.0
  O  O10835  1  0.41963761  0.92871198  0.50585536  1.0
  O  O10836  1  0.50297094  0.09537865  0.50585536  1.0
  O  O10837  1  0.50297094  0.26204532  0.50585536  1.0
  O  O10838  1  0.50297094  0.42871198  0.50585536  1.0
  O  O10839  1  0.50297094  0.59537865  0.50585536  1.0
  O  O10840  1  0.50297094  0.76204532  0.50585536  1.0
  O  O10841  1  0.50297094  0.92871198  0.50585536  1.0
  O  O10842  1  0.58630428  0.09537865  0.50585536  1.0
  O  O10843  1  0.58630428  0.26204532  0.50585536  1.0
  O  O10844  1  0.58630428  0.42871198  0.50585536  1.0
  O  O10845  1  0.58630428  0.59537865  0.50585536  1.0
  O  O10846  1  0.58630428  0.76204532  0.50585536  1.0
  O  O10847  1  0.58630428  0.92871198  0.50585536  1.0
  O  O10848  1  0.66963761  0.09537865  0.50585536  1.0
  O  O10849  1  0.66963761  0.26204532  0.50585536  1.0
  O  O10850  1  0.66963761  0.42871198  0.50585536  1.0
  O  O10851  1  0.66963761  0.59537865  0.50585536  1.0
  O  O10852  1  0.66963761  0.76204532  0.50585536  1.0
  O  O10853  1  0.66963761  0.92871198  0.50585536  1.0
  O  O10854  1  0.75297094  0.09537865  0.50585536  1.0
  O  O10855  1  0.75297094  0.26204532  0.50585536  1.0
  O  O10856  1  0.75297094  0.42871198  0.50585536  1.0
  O  O10857  1  0.75297094  0.59537865  0.50585536  1.0
  O  O10858  1  0.75297094  0.76204532  0.50585536  1.0
  O  O10859  1  0.75297094  0.92871198  0.50585536  1.0
  O  O10860  1  0.83630428  0.09537865  0.50585536  1.0
  O  O10861  1  0.83630428  0.26204532  0.50585536  1.0
  O  O10862  1  0.83630428  0.42871198  0.50585536  1.0
  O  O10863  1  0.83630428  0.59537865  0.50585536  1.0
  O  O10864  1  0.83630428  0.76204532  0.50585536  1.0
  O  O10865  1  0.83630428  0.92871198  0.50585536  1.0
  O  O10866  1  0.91963761  0.09537865  0.50585536  1.0
  O  O10867  1  0.91963761  0.26204532  0.50585536  1.0
  O  O10868  1  0.91963761  0.42871198  0.50585536  1.0
  O  O10869  1  0.91963761  0.59537865  0.50585536  1.0
  O  O10870  1  0.91963761  0.76204532  0.50585536  1.0
  O  O10871  1  0.91963761  0.92871198  0.50585536  1.0
  O  O10872  1  0.06249475  0.08347389  0.57728394  1.0
  O  O10873  1  0.06249475  0.25014056  0.57728394  1.0
  O  O10874  1  0.06249475  0.41680722  0.57728394  1.0
  O  O10875  1  0.06249475  0.58347389  0.57728394  1.0
  O  O10876  1  0.06249475  0.75014056  0.57728394  1.0
  O  O10877  1  0.06249475  0.91680722  0.57728394  1.0
  O  O10878  1  0.14582809  0.08347389  0.57728394  1.0
  O  O10879  1  0.14582809  0.25014056  0.57728394  1.0
  O  O10880  1  0.14582809  0.41680722  0.57728394  1.0
  O  O10881  1  0.14582809  0.58347389  0.57728394  1.0
  O  O10882  1  0.14582809  0.75014056  0.57728394  1.0
  O  O10883  1  0.14582809  0.91680722  0.57728394  1.0
  O  O10884  1  0.22916142  0.08347389  0.57728394  1.0
  O  O10885  1  0.22916142  0.25014056  0.57728394  1.0
  O  O10886  1  0.22916142  0.41680722  0.57728394  1.0
  O  O10887  1  0.22916142  0.58347389  0.57728394  1.0
  O  O10888  1  0.22916142  0.75014056  0.57728394  1.0
  O  O10889  1  0.22916142  0.91680722  0.57728394  1.0
  O  O10890  1  0.31249475  0.08347389  0.57728394  1.0
  O  O10891  1  0.31249475  0.25014056  0.57728394  1.0
  O  O10892  1  0.31249475  0.41680722  0.57728394  1.0
  O  O10893  1  0.31249475  0.58347389  0.57728394  1.0
  O  O10894  1  0.31249475  0.75014056  0.57728394  1.0
  O  O10895  1  0.31249475  0.91680722  0.57728394  1.0
  O  O10896  1  0.39582809  0.08347389  0.57728394  1.0
  O  O10897  1  0.39582809  0.25014056  0.57728394  1.0
  O  O10898  1  0.39582809  0.41680722  0.57728394  1.0
  O  O10899  1  0.39582809  0.58347389  0.57728394  1.0
  O  O10900  1  0.39582809  0.75014056  0.57728394  1.0
  O  O10901  1  0.39582809  0.91680722  0.57728394  1.0
  O  O10902  1  0.47916142  0.08347389  0.57728394  1.0
  O  O10903  1  0.47916142  0.25014056  0.57728394  1.0
  O  O10904  1  0.47916142  0.41680722  0.57728394  1.0
  O  O10905  1  0.47916142  0.58347389  0.57728394  1.0
  O  O10906  1  0.47916142  0.75014056  0.57728394  1.0
  O  O10907  1  0.47916142  0.91680722  0.57728394  1.0
  O  O10908  1  0.56249475  0.08347389  0.57728394  1.0
  O  O10909  1  0.56249475  0.25014056  0.57728394  1.0
  O  O10910  1  0.56249475  0.41680722  0.57728394  1.0
  O  O10911  1  0.56249475  0.58347389  0.57728394  1.0
  O  O10912  1  0.56249475  0.75014056  0.57728394  1.0
  O  O10913  1  0.56249475  0.91680722  0.57728394  1.0
  O  O10914  1  0.64582809  0.08347389  0.57728394  1.0
  O  O10915  1  0.64582809  0.25014056  0.57728394  1.0
  O  O10916  1  0.64582809  0.41680722  0.57728394  1.0
  O  O10917  1  0.64582809  0.58347389  0.57728394  1.0
  O  O10918  1  0.64582809  0.75014056  0.57728394  1.0
  O  O10919  1  0.64582809  0.91680722  0.57728394  1.0
  O  O10920  1  0.72916142  0.08347389  0.57728394  1.0
  O  O10921  1  0.72916142  0.25014056  0.57728394  1.0
  O  O10922  1  0.72916142  0.41680722  0.57728394  1.0
  O  O10923  1  0.72916142  0.58347389  0.57728394  1.0
  O  O10924  1  0.72916142  0.75014056  0.57728394  1.0
  O  O10925  1  0.72916142  0.91680722  0.57728394  1.0
  O  O10926  1  0.81249475  0.08347389  0.57728394  1.0
  O  O10927  1  0.81249475  0.25014056  0.57728394  1.0
  O  O10928  1  0.81249475  0.41680722  0.57728394  1.0
  O  O10929  1  0.81249475  0.58347389  0.57728394  1.0
  O  O10930  1  0.81249475  0.75014056  0.57728394  1.0
  O  O10931  1  0.81249475  0.91680722  0.57728394  1.0
  O  O10932  1  0.89582809  0.08347389  0.57728394  1.0
  O  O10933  1  0.89582809  0.25014056  0.57728394  1.0
  O  O10934  1  0.89582809  0.41680722  0.57728394  1.0
  O  O10935  1  0.89582809  0.58347389  0.57728394  1.0
  O  O10936  1  0.89582809  0.75014056  0.57728394  1.0
  O  O10937  1  0.89582809  0.91680722  0.57728394  1.0
  O  O10938  1  0.97916142  0.08347389  0.57728394  1.0
  O  O10939  1  0.97916142  0.25014056  0.57728394  1.0
  O  O10940  1  0.97916142  0.41680722  0.57728394  1.0
  O  O10941  1  0.97916142  0.58347389  0.57728394  1.0
  O  O10942  1  0.97916142  0.75014056  0.57728394  1.0
  O  O10943  1  0.97916142  0.91680722  0.57728394  1.0
  O  O10944  1  0.04518489  0.11754625  0.50923512  1.0
  O  O10945  1  0.04518489  0.28421292  0.50923512  1.0
  O  O10946  1  0.04518489  0.45087958  0.50923512  1.0
  O  O10947  1  0.04518489  0.61754625  0.50923512  1.0
  O  O10948  1  0.04518489  0.78421292  0.50923512  1.0
  O  O10949  1  0.04518489  0.95087958  0.50923512  1.0
  O  O10950  1  0.12851822  0.11754625  0.50923512  1.0
  O  O10951  1  0.12851822  0.28421292  0.50923512  1.0
  O  O10952  1  0.12851822  0.45087958  0.50923512  1.0
  O  O10953  1  0.12851822  0.61754625  0.50923512  1.0
  O  O10954  1  0.12851822  0.78421292  0.50923512  1.0
  O  O10955  1  0.12851822  0.95087958  0.50923512  1.0
  O  O10956  1  0.21185156  0.11754625  0.50923512  1.0
  O  O10957  1  0.21185156  0.28421292  0.50923512  1.0
  O  O10958  1  0.21185156  0.45087958  0.50923512  1.0
  O  O10959  1  0.21185156  0.61754625  0.50923512  1.0
  O  O10960  1  0.21185156  0.78421292  0.50923512  1.0
  O  O10961  1  0.21185156  0.95087958  0.50923512  1.0
  O  O10962  1  0.29518489  0.11754625  0.50923512  1.0
  O  O10963  1  0.29518489  0.28421292  0.50923512  1.0
  O  O10964  1  0.29518489  0.45087958  0.50923512  1.0
  O  O10965  1  0.29518489  0.61754625  0.50923512  1.0
  O  O10966  1  0.29518489  0.78421292  0.50923512  1.0
  O  O10967  1  0.29518489  0.95087958  0.50923512  1.0
  O  O10968  1  0.37851822  0.11754625  0.50923512  1.0
  O  O10969  1  0.37851822  0.28421292  0.50923512  1.0
  O  O10970  1  0.37851822  0.45087958  0.50923512  1.0
  O  O10971  1  0.37851822  0.61754625  0.50923512  1.0
  O  O10972  1  0.37851822  0.78421292  0.50923512  1.0
  O  O10973  1  0.37851822  0.95087958  0.50923512  1.0
  O  O10974  1  0.46185156  0.11754625  0.50923512  1.0
  O  O10975  1  0.46185156  0.28421292  0.50923512  1.0
  O  O10976  1  0.46185156  0.45087958  0.50923512  1.0
  O  O10977  1  0.46185156  0.61754625  0.50923512  1.0
  O  O10978  1  0.46185156  0.78421292  0.50923512  1.0
  O  O10979  1  0.46185156  0.95087958  0.50923512  1.0
  O  O10980  1  0.54518489  0.11754625  0.50923512  1.0
  O  O10981  1  0.54518489  0.28421292  0.50923512  1.0
  O  O10982  1  0.54518489  0.45087958  0.50923512  1.0
  O  O10983  1  0.54518489  0.61754625  0.50923512  1.0
  O  O10984  1  0.54518489  0.78421292  0.50923512  1.0
  O  O10985  1  0.54518489  0.95087958  0.50923512  1.0
  O  O10986  1  0.62851822  0.11754625  0.50923512  1.0
  O  O10987  1  0.62851822  0.28421292  0.50923512  1.0
  O  O10988  1  0.62851822  0.45087958  0.50923512  1.0
  O  O10989  1  0.62851822  0.61754625  0.50923512  1.0
  O  O10990  1  0.62851822  0.78421292  0.50923512  1.0
  O  O10991  1  0.62851822  0.95087958  0.50923512  1.0
  O  O10992  1  0.71185156  0.11754625  0.50923512  1.0
  O  O10993  1  0.71185156  0.28421292  0.50923512  1.0
  O  O10994  1  0.71185156  0.45087958  0.50923512  1.0
  O  O10995  1  0.71185156  0.61754625  0.50923512  1.0
  O  O10996  1  0.71185156  0.78421292  0.50923512  1.0
  O  O10997  1  0.71185156  0.95087958  0.50923512  1.0
  O  O10998  1  0.79518489  0.11754625  0.50923512  1.0
  O  O10999  1  0.79518489  0.28421292  0.50923512  1.0
  O  O11000  1  0.79518489  0.45087958  0.50923512  1.0
  O  O11001  1  0.79518489  0.61754625  0.50923512  1.0
  O  O11002  1  0.79518489  0.78421292  0.50923512  1.0
  O  O11003  1  0.79518489  0.95087958  0.50923512  1.0
  O  O11004  1  0.87851822  0.11754625  0.50923512  1.0
  O  O11005  1  0.87851822  0.28421292  0.50923512  1.0
  O  O11006  1  0.87851822  0.45087958  0.50923512  1.0
  O  O11007  1  0.87851822  0.61754625  0.50923512  1.0
  O  O11008  1  0.87851822  0.78421292  0.50923512  1.0
  O  O11009  1  0.87851822  0.95087958  0.50923512  1.0
  O  O11010  1  0.96185156  0.11754625  0.50923512  1.0
  O  O11011  1  0.96185156  0.28421292  0.50923512  1.0
  O  O11012  1  0.96185156  0.45087958  0.50923512  1.0
  O  O11013  1  0.96185156  0.61754625  0.50923512  1.0
  O  O11014  1  0.96185156  0.78421292  0.50923512  1.0
  O  O11015  1  0.96185156  0.95087958  0.50923512  1.0
  O  O11016  1  0.02137536  0.10564149  0.58066370  1.0
  O  O11017  1  0.02137536  0.27230815  0.58066370  1.0
  O  O11018  1  0.02137536  0.43897482  0.58066370  1.0
  O  O11019  1  0.02137536  0.60564149  0.58066370  1.0
  O  O11020  1  0.02137536  0.77230815  0.58066370  1.0
  O  O11021  1  0.02137536  0.93897482  0.58066370  1.0
  O  O11022  1  0.10470870  0.10564149  0.58066370  1.0
  O  O11023  1  0.10470870  0.27230815  0.58066370  1.0
  O  O11024  1  0.10470870  0.43897482  0.58066370  1.0
  O  O11025  1  0.10470870  0.60564149  0.58066370  1.0
  O  O11026  1  0.10470870  0.77230815  0.58066370  1.0
  O  O11027  1  0.10470870  0.93897482  0.58066370  1.0
  O  O11028  1  0.18804203  0.10564149  0.58066370  1.0
  O  O11029  1  0.18804203  0.27230815  0.58066370  1.0
  O  O11030  1  0.18804203  0.43897482  0.58066370  1.0
  O  O11031  1  0.18804203  0.60564149  0.58066370  1.0
  O  O11032  1  0.18804203  0.77230815  0.58066370  1.0
  O  O11033  1  0.18804203  0.93897482  0.58066370  1.0
  O  O11034  1  0.27137536  0.10564149  0.58066370  1.0
  O  O11035  1  0.27137536  0.27230815  0.58066370  1.0
  O  O11036  1  0.27137536  0.43897482  0.58066370  1.0
  O  O11037  1  0.27137536  0.60564149  0.58066370  1.0
  O  O11038  1  0.27137536  0.77230815  0.58066370  1.0
  O  O11039  1  0.27137536  0.93897482  0.58066370  1.0
  O  O11040  1  0.35470870  0.10564149  0.58066370  1.0
  O  O11041  1  0.35470870  0.27230815  0.58066370  1.0
  O  O11042  1  0.35470870  0.43897482  0.58066370  1.0
  O  O11043  1  0.35470870  0.60564149  0.58066370  1.0
  O  O11044  1  0.35470870  0.77230815  0.58066370  1.0
  O  O11045  1  0.35470870  0.93897482  0.58066370  1.0
  O  O11046  1  0.43804203  0.10564149  0.58066370  1.0
  O  O11047  1  0.43804203  0.27230815  0.58066370  1.0
  O  O11048  1  0.43804203  0.43897482  0.58066370  1.0
  O  O11049  1  0.43804203  0.60564149  0.58066370  1.0
  O  O11050  1  0.43804203  0.77230815  0.58066370  1.0
  O  O11051  1  0.43804203  0.93897482  0.58066370  1.0
  O  O11052  1  0.52137536  0.10564149  0.58066370  1.0
  O  O11053  1  0.52137536  0.27230815  0.58066370  1.0
  O  O11054  1  0.52137536  0.43897482  0.58066370  1.0
  O  O11055  1  0.52137536  0.60564149  0.58066370  1.0
  O  O11056  1  0.52137536  0.77230815  0.58066370  1.0
  O  O11057  1  0.52137536  0.93897482  0.58066370  1.0
  O  O11058  1  0.60470870  0.10564149  0.58066370  1.0
  O  O11059  1  0.60470870  0.27230815  0.58066370  1.0
  O  O11060  1  0.60470870  0.43897482  0.58066370  1.0
  O  O11061  1  0.60470870  0.60564149  0.58066370  1.0
  O  O11062  1  0.60470870  0.77230815  0.58066370  1.0
  O  O11063  1  0.60470870  0.93897482  0.58066370  1.0
  O  O11064  1  0.68804203  0.10564149  0.58066370  1.0
  O  O11065  1  0.68804203  0.27230815  0.58066370  1.0
  O  O11066  1  0.68804203  0.43897482  0.58066370  1.0
  O  O11067  1  0.68804203  0.60564149  0.58066370  1.0
  O  O11068  1  0.68804203  0.77230815  0.58066370  1.0
  O  O11069  1  0.68804203  0.93897482  0.58066370  1.0
  O  O11070  1  0.77137536  0.10564149  0.58066370  1.0
  O  O11071  1  0.77137536  0.27230815  0.58066370  1.0
  O  O11072  1  0.77137536  0.43897482  0.58066370  1.0
  O  O11073  1  0.77137536  0.60564149  0.58066370  1.0
  O  O11074  1  0.77137536  0.77230815  0.58066370  1.0
  O  O11075  1  0.77137536  0.93897482  0.58066370  1.0
  O  O11076  1  0.85470870  0.10564149  0.58066370  1.0
  O  O11077  1  0.85470870  0.27230815  0.58066370  1.0
  O  O11078  1  0.85470870  0.43897482  0.58066370  1.0
  O  O11079  1  0.85470870  0.60564149  0.58066370  1.0
  O  O11080  1  0.85470870  0.77230815  0.58066370  1.0
  O  O11081  1  0.85470870  0.93897482  0.58066370  1.0
  O  O11082  1  0.93804203  0.10564149  0.58066370  1.0
  O  O11083  1  0.93804203  0.27230815  0.58066370  1.0
  O  O11084  1  0.93804203  0.43897482  0.58066370  1.0
  O  O11085  1  0.93804203  0.60564149  0.58066370  1.0
  O  O11086  1  0.93804203  0.77230815  0.58066370  1.0
  O  O11087  1  0.93804203  0.93897482  0.58066370  1.0
  O  O11088  1  0.03489517  0.04202166  0.53093416  1.0
  O  O11089  1  0.03489517  0.20868832  0.53093416  1.0
  O  O11090  1  0.03489517  0.37535499  0.53093416  1.0
  O  O11091  1  0.03489517  0.54202165  0.53093416  1.0
  O  O11092  1  0.03489517  0.70868832  0.53093416  1.0
  O  O11093  1  0.03489517  0.87535499  0.53093416  1.0
  O  O11094  1  0.11822850  0.04202166  0.53093416  1.0
  O  O11095  1  0.11822850  0.20868832  0.53093416  1.0
  O  O11096  1  0.11822850  0.37535499  0.53093416  1.0
  O  O11097  1  0.11822850  0.54202165  0.53093416  1.0
  O  O11098  1  0.11822850  0.70868832  0.53093416  1.0
  O  O11099  1  0.11822850  0.87535499  0.53093416  1.0
  O  O11100  1  0.20156184  0.04202166  0.53093416  1.0
  O  O11101  1  0.20156184  0.20868832  0.53093416  1.0
  O  O11102  1  0.20156184  0.37535499  0.53093416  1.0
  O  O11103  1  0.20156184  0.54202165  0.53093416  1.0
  O  O11104  1  0.20156184  0.70868832  0.53093416  1.0
  O  O11105  1  0.20156184  0.87535499  0.53093416  1.0
  O  O11106  1  0.28489517  0.04202166  0.53093416  1.0
  O  O11107  1  0.28489517  0.20868832  0.53093416  1.0
  O  O11108  1  0.28489517  0.37535499  0.53093416  1.0
  O  O11109  1  0.28489517  0.54202165  0.53093416  1.0
  O  O11110  1  0.28489517  0.70868832  0.53093416  1.0
  O  O11111  1  0.28489517  0.87535499  0.53093416  1.0
  O  O11112  1  0.36822850  0.04202166  0.53093416  1.0
  O  O11113  1  0.36822850  0.20868832  0.53093416  1.0
  O  O11114  1  0.36822850  0.37535499  0.53093416  1.0
  O  O11115  1  0.36822850  0.54202165  0.53093416  1.0
  O  O11116  1  0.36822850  0.70868832  0.53093416  1.0
  O  O11117  1  0.36822850  0.87535499  0.53093416  1.0
  O  O11118  1  0.45156184  0.04202166  0.53093416  1.0
  O  O11119  1  0.45156184  0.20868832  0.53093416  1.0
  O  O11120  1  0.45156184  0.37535499  0.53093416  1.0
  O  O11121  1  0.45156184  0.54202165  0.53093416  1.0
  O  O11122  1  0.45156184  0.70868832  0.53093416  1.0
  O  O11123  1  0.45156184  0.87535499  0.53093416  1.0
  O  O11124  1  0.53489517  0.04202166  0.53093416  1.0
  O  O11125  1  0.53489517  0.20868832  0.53093416  1.0
  O  O11126  1  0.53489517  0.37535499  0.53093416  1.0
  O  O11127  1  0.53489517  0.54202165  0.53093416  1.0
  O  O11128  1  0.53489517  0.70868832  0.53093416  1.0
  O  O11129  1  0.53489517  0.87535499  0.53093416  1.0
  O  O11130  1  0.61822850  0.04202166  0.53093416  1.0
  O  O11131  1  0.61822850  0.20868832  0.53093416  1.0
  O  O11132  1  0.61822850  0.37535499  0.53093416  1.0
  O  O11133  1  0.61822850  0.54202165  0.53093416  1.0
  O  O11134  1  0.61822850  0.70868832  0.53093416  1.0
  O  O11135  1  0.61822850  0.87535499  0.53093416  1.0
  O  O11136  1  0.70156184  0.04202166  0.53093416  1.0
  O  O11137  1  0.70156184  0.20868832  0.53093416  1.0
  O  O11138  1  0.70156184  0.37535499  0.53093416  1.0
  O  O11139  1  0.70156184  0.54202165  0.53093416  1.0
  O  O11140  1  0.70156184  0.70868832  0.53093416  1.0
  O  O11141  1  0.70156184  0.87535499  0.53093416  1.0
  O  O11142  1  0.78489517  0.04202166  0.53093416  1.0
  O  O11143  1  0.78489517  0.20868832  0.53093416  1.0
  O  O11144  1  0.78489517  0.37535499  0.53093416  1.0
  O  O11145  1  0.78489517  0.54202165  0.53093416  1.0
  O  O11146  1  0.78489517  0.70868832  0.53093416  1.0
  O  O11147  1  0.78489517  0.87535499  0.53093416  1.0
  O  O11148  1  0.86822850  0.04202166  0.53093416  1.0
  O  O11149  1  0.86822850  0.20868832  0.53093416  1.0
  O  O11150  1  0.86822850  0.37535499  0.53093416  1.0
  O  O11151  1  0.86822850  0.54202165  0.53093416  1.0
  O  O11152  1  0.86822850  0.70868832  0.53093416  1.0
  O  O11153  1  0.86822850  0.87535499  0.53093416  1.0
  O  O11154  1  0.95156184  0.04202166  0.53093416  1.0
  O  O11155  1  0.95156184  0.20868832  0.53093416  1.0
  O  O11156  1  0.95156184  0.37535499  0.53093416  1.0
  O  O11157  1  0.95156184  0.54202165  0.53093416  1.0
  O  O11158  1  0.95156184  0.70868832  0.53093416  1.0
  O  O11159  1  0.95156184  0.87535499  0.53093416  1.0
  O  O11160  1  0.01108565  0.03011689  0.60236273  1.0
  O  O11161  1  0.01108565  0.19678356  0.60236273  1.0
  O  O11162  1  0.01108565  0.36345023  0.60236273  1.0
  O  O11163  1  0.01108565  0.53011689  0.60236273  1.0
  O  O11164  1  0.01108565  0.69678356  0.60236273  1.0
  O  O11165  1  0.01108565  0.86345023  0.60236273  1.0
  O  O11166  1  0.09441898  0.03011689  0.60236273  1.0
  O  O11167  1  0.09441898  0.19678356  0.60236273  1.0
  O  O11168  1  0.09441898  0.36345023  0.60236273  1.0
  O  O11169  1  0.09441898  0.53011689  0.60236273  1.0
  O  O11170  1  0.09441898  0.69678356  0.60236273  1.0
  O  O11171  1  0.09441898  0.86345023  0.60236273  1.0
  O  O11172  1  0.17775231  0.03011689  0.60236273  1.0
  O  O11173  1  0.17775231  0.19678356  0.60236273  1.0
  O  O11174  1  0.17775231  0.36345023  0.60236273  1.0
  O  O11175  1  0.17775231  0.53011689  0.60236273  1.0
  O  O11176  1  0.17775231  0.69678356  0.60236273  1.0
  O  O11177  1  0.17775231  0.86345023  0.60236273  1.0
  O  O11178  1  0.26108565  0.03011689  0.60236273  1.0
  O  O11179  1  0.26108565  0.19678356  0.60236273  1.0
  O  O11180  1  0.26108565  0.36345023  0.60236273  1.0
  O  O11181  1  0.26108565  0.53011689  0.60236273  1.0
  O  O11182  1  0.26108565  0.69678356  0.60236273  1.0
  O  O11183  1  0.26108565  0.86345023  0.60236273  1.0
  O  O11184  1  0.34441898  0.03011689  0.60236273  1.0
  O  O11185  1  0.34441898  0.19678356  0.60236273  1.0
  O  O11186  1  0.34441898  0.36345023  0.60236273  1.0
  O  O11187  1  0.34441898  0.53011689  0.60236273  1.0
  O  O11188  1  0.34441898  0.69678356  0.60236273  1.0
  O  O11189  1  0.34441898  0.86345023  0.60236273  1.0
  O  O11190  1  0.42775231  0.03011689  0.60236273  1.0
  O  O11191  1  0.42775231  0.19678356  0.60236273  1.0
  O  O11192  1  0.42775231  0.36345023  0.60236273  1.0
  O  O11193  1  0.42775231  0.53011689  0.60236273  1.0
  O  O11194  1  0.42775231  0.69678356  0.60236273  1.0
  O  O11195  1  0.42775231  0.86345023  0.60236273  1.0
  O  O11196  1  0.51108565  0.03011689  0.60236273  1.0
  O  O11197  1  0.51108565  0.19678356  0.60236273  1.0
  O  O11198  1  0.51108565  0.36345023  0.60236273  1.0
  O  O11199  1  0.51108565  0.53011689  0.60236273  1.0
  O  O11200  1  0.51108565  0.69678356  0.60236273  1.0
  O  O11201  1  0.51108565  0.86345023  0.60236273  1.0
  O  O11202  1  0.59441898  0.03011689  0.60236273  1.0
  O  O11203  1  0.59441898  0.19678356  0.60236273  1.0
  O  O11204  1  0.59441898  0.36345023  0.60236273  1.0
  O  O11205  1  0.59441898  0.53011689  0.60236273  1.0
  O  O11206  1  0.59441898  0.69678356  0.60236273  1.0
  O  O11207  1  0.59441898  0.86345023  0.60236273  1.0
  O  O11208  1  0.67775231  0.03011689  0.60236273  1.0
  O  O11209  1  0.67775231  0.19678356  0.60236273  1.0
  O  O11210  1  0.67775231  0.36345023  0.60236273  1.0
  O  O11211  1  0.67775231  0.53011689  0.60236273  1.0
  O  O11212  1  0.67775231  0.69678356  0.60236273  1.0
  O  O11213  1  0.67775231  0.86345023  0.60236273  1.0
  O  O11214  1  0.76108565  0.03011689  0.60236273  1.0
  O  O11215  1  0.76108565  0.19678356  0.60236273  1.0
  O  O11216  1  0.76108565  0.36345023  0.60236273  1.0
  O  O11217  1  0.76108565  0.53011689  0.60236273  1.0
  O  O11218  1  0.76108565  0.69678356  0.60236273  1.0
  O  O11219  1  0.76108565  0.86345023  0.60236273  1.0
  O  O11220  1  0.84441898  0.03011689  0.60236273  1.0
  O  O11221  1  0.84441898  0.19678356  0.60236273  1.0
  O  O11222  1  0.84441898  0.36345023  0.60236273  1.0
  O  O11223  1  0.84441898  0.53011689  0.60236273  1.0
  O  O11224  1  0.84441898  0.69678356  0.60236273  1.0
  O  O11225  1  0.84441898  0.86345023  0.60236273  1.0
  O  O11226  1  0.92775231  0.03011689  0.60236273  1.0
  O  O11227  1  0.92775231  0.19678356  0.60236273  1.0
  O  O11228  1  0.92775231  0.36345023  0.60236273  1.0
  O  O11229  1  0.92775231  0.53011689  0.60236273  1.0
  O  O11230  1  0.92775231  0.69678356  0.60236273  1.0
  O  O11231  1  0.92775231  0.86345023  0.60236273  1.0
  O  O11232  1  0.03912335  0.02458361  0.63818438  1.0
  O  O11233  1  0.03912335  0.19125028  0.63818438  1.0
  O  O11234  1  0.03912335  0.35791695  0.63818438  1.0
  O  O11235  1  0.03912335  0.52458361  0.63818438  1.0
  O  O11236  1  0.03912335  0.69125028  0.63818438  1.0
  O  O11237  1  0.03912335  0.85791695  0.63818438  1.0
  O  O11238  1  0.12245668  0.02458361  0.63818438  1.0
  O  O11239  1  0.12245668  0.19125028  0.63818438  1.0
  O  O11240  1  0.12245668  0.35791695  0.63818438  1.0
  O  O11241  1  0.12245668  0.52458361  0.63818438  1.0
  O  O11242  1  0.12245668  0.69125028  0.63818438  1.0
  O  O11243  1  0.12245668  0.85791695  0.63818438  1.0
  O  O11244  1  0.20579001  0.02458361  0.63818438  1.0
  O  O11245  1  0.20579001  0.19125028  0.63818438  1.0
  O  O11246  1  0.20579001  0.35791695  0.63818438  1.0
  O  O11247  1  0.20579001  0.52458361  0.63818438  1.0
  O  O11248  1  0.20579001  0.69125028  0.63818438  1.0
  O  O11249  1  0.20579001  0.85791695  0.63818438  1.0
  O  O11250  1  0.28912335  0.02458361  0.63818438  1.0
  O  O11251  1  0.28912335  0.19125028  0.63818438  1.0
  O  O11252  1  0.28912335  0.35791695  0.63818438  1.0
  O  O11253  1  0.28912335  0.52458361  0.63818438  1.0
  O  O11254  1  0.28912335  0.69125028  0.63818438  1.0
  O  O11255  1  0.28912335  0.85791695  0.63818438  1.0
  O  O11256  1  0.37245668  0.02458361  0.63818438  1.0
  O  O11257  1  0.37245668  0.19125028  0.63818438  1.0
  O  O11258  1  0.37245668  0.35791695  0.63818438  1.0
  O  O11259  1  0.37245668  0.52458361  0.63818438  1.0
  O  O11260  1  0.37245668  0.69125028  0.63818438  1.0
  O  O11261  1  0.37245668  0.85791695  0.63818438  1.0
  O  O11262  1  0.45579001  0.02458361  0.63818438  1.0
  O  O11263  1  0.45579001  0.19125028  0.63818438  1.0
  O  O11264  1  0.45579001  0.35791695  0.63818438  1.0
  O  O11265  1  0.45579001  0.52458361  0.63818438  1.0
  O  O11266  1  0.45579001  0.69125028  0.63818438  1.0
  O  O11267  1  0.45579001  0.85791695  0.63818438  1.0
  O  O11268  1  0.53912335  0.02458361  0.63818438  1.0
  O  O11269  1  0.53912335  0.19125028  0.63818438  1.0
  O  O11270  1  0.53912335  0.35791695  0.63818438  1.0
  O  O11271  1  0.53912335  0.52458361  0.63818438  1.0
  O  O11272  1  0.53912335  0.69125028  0.63818438  1.0
  O  O11273  1  0.53912335  0.85791695  0.63818438  1.0
  O  O11274  1  0.62245668  0.02458361  0.63818438  1.0
  O  O11275  1  0.62245668  0.19125028  0.63818438  1.0
  O  O11276  1  0.62245668  0.35791695  0.63818438  1.0
  O  O11277  1  0.62245668  0.52458361  0.63818438  1.0
  O  O11278  1  0.62245668  0.69125028  0.63818438  1.0
  O  O11279  1  0.62245668  0.85791695  0.63818438  1.0
  O  O11280  1  0.70579001  0.02458361  0.63818438  1.0
  O  O11281  1  0.70579001  0.19125028  0.63818438  1.0
  O  O11282  1  0.70579001  0.35791695  0.63818438  1.0
  O  O11283  1  0.70579001  0.52458361  0.63818438  1.0
  O  O11284  1  0.70579001  0.69125028  0.63818438  1.0
  O  O11285  1  0.70579001  0.85791695  0.63818438  1.0
  O  O11286  1  0.78912335  0.02458361  0.63818438  1.0
  O  O11287  1  0.78912335  0.19125028  0.63818438  1.0
  O  O11288  1  0.78912335  0.35791695  0.63818438  1.0
  O  O11289  1  0.78912335  0.52458361  0.63818438  1.0
  O  O11290  1  0.78912335  0.69125028  0.63818438  1.0
  O  O11291  1  0.78912335  0.85791695  0.63818438  1.0
  O  O11292  1  0.87245668  0.02458361  0.63818438  1.0
  O  O11293  1  0.87245668  0.19125028  0.63818438  1.0
  O  O11294  1  0.87245668  0.35791695  0.63818438  1.0
  O  O11295  1  0.87245668  0.52458361  0.63818438  1.0
  O  O11296  1  0.87245668  0.69125028  0.63818438  1.0
  O  O11297  1  0.87245668  0.85791695  0.63818438  1.0
  O  O11298  1  0.95579001  0.02458361  0.63818438  1.0
  O  O11299  1  0.95579001  0.19125028  0.63818438  1.0
  O  O11300  1  0.95579001  0.35791695  0.63818438  1.0
  O  O11301  1  0.95579001  0.52458361  0.63818438  1.0
  O  O11302  1  0.95579001  0.69125028  0.63818438  1.0
  O  O11303  1  0.95579001  0.85791695  0.63818438  1.0
  O  O11304  1  0.06293287  0.03648837  0.56675581  1.0
  O  O11305  1  0.06293287  0.20315504  0.56675581  1.0
  O  O11306  1  0.06293287  0.36982171  0.56675581  1.0
  O  O11307  1  0.06293287  0.53648837  0.56675581  1.0
  O  O11308  1  0.06293287  0.70315504  0.56675581  1.0
  O  O11309  1  0.06293287  0.86982171  0.56675581  1.0
  O  O11310  1  0.14626620  0.03648837  0.56675581  1.0
  O  O11311  1  0.14626620  0.20315504  0.56675581  1.0
  O  O11312  1  0.14626620  0.36982171  0.56675581  1.0
  O  O11313  1  0.14626620  0.53648837  0.56675581  1.0
  O  O11314  1  0.14626620  0.70315504  0.56675581  1.0
  O  O11315  1  0.14626620  0.86982171  0.56675581  1.0
  O  O11316  1  0.22959954  0.03648837  0.56675581  1.0
  O  O11317  1  0.22959954  0.20315504  0.56675581  1.0
  O  O11318  1  0.22959954  0.36982171  0.56675581  1.0
  O  O11319  1  0.22959954  0.53648837  0.56675581  1.0
  O  O11320  1  0.22959954  0.70315504  0.56675581  1.0
  O  O11321  1  0.22959954  0.86982171  0.56675581  1.0
  O  O11322  1  0.31293287  0.03648837  0.56675581  1.0
  O  O11323  1  0.31293287  0.20315504  0.56675581  1.0
  O  O11324  1  0.31293287  0.36982171  0.56675581  1.0
  O  O11325  1  0.31293287  0.53648837  0.56675581  1.0
  O  O11326  1  0.31293287  0.70315504  0.56675581  1.0
  O  O11327  1  0.31293287  0.86982171  0.56675581  1.0
  O  O11328  1  0.39626620  0.03648837  0.56675581  1.0
  O  O11329  1  0.39626620  0.20315504  0.56675581  1.0
  O  O11330  1  0.39626620  0.36982171  0.56675581  1.0
  O  O11331  1  0.39626620  0.53648837  0.56675581  1.0
  O  O11332  1  0.39626620  0.70315504  0.56675581  1.0
  O  O11333  1  0.39626620  0.86982171  0.56675581  1.0
  O  O11334  1  0.47959954  0.03648837  0.56675581  1.0
  O  O11335  1  0.47959954  0.20315504  0.56675581  1.0
  O  O11336  1  0.47959954  0.36982171  0.56675581  1.0
  O  O11337  1  0.47959954  0.53648837  0.56675581  1.0
  O  O11338  1  0.47959954  0.70315504  0.56675581  1.0
  O  O11339  1  0.47959954  0.86982171  0.56675581  1.0
  O  O11340  1  0.56293287  0.03648837  0.56675581  1.0
  O  O11341  1  0.56293287  0.20315504  0.56675581  1.0
  O  O11342  1  0.56293287  0.36982171  0.56675581  1.0
  O  O11343  1  0.56293287  0.53648837  0.56675581  1.0
  O  O11344  1  0.56293287  0.70315504  0.56675581  1.0
  O  O11345  1  0.56293287  0.86982171  0.56675581  1.0
  O  O11346  1  0.64626620  0.03648837  0.56675581  1.0
  O  O11347  1  0.64626620  0.20315504  0.56675581  1.0
  O  O11348  1  0.64626620  0.36982171  0.56675581  1.0
  O  O11349  1  0.64626620  0.53648837  0.56675581  1.0
  O  O11350  1  0.64626620  0.70315504  0.56675581  1.0
  O  O11351  1  0.64626620  0.86982171  0.56675581  1.0
  O  O11352  1  0.72959954  0.03648837  0.56675581  1.0
  O  O11353  1  0.72959954  0.20315504  0.56675581  1.0
  O  O11354  1  0.72959954  0.36982171  0.56675581  1.0
  O  O11355  1  0.72959954  0.53648837  0.56675581  1.0
  O  O11356  1  0.72959954  0.70315504  0.56675581  1.0
  O  O11357  1  0.72959954  0.86982171  0.56675581  1.0
  O  O11358  1  0.81293287  0.03648837  0.56675581  1.0
  O  O11359  1  0.81293287  0.20315504  0.56675581  1.0
  O  O11360  1  0.81293287  0.36982171  0.56675581  1.0
  O  O11361  1  0.81293287  0.53648837  0.56675581  1.0
  O  O11362  1  0.81293287  0.70315504  0.56675581  1.0
  O  O11363  1  0.81293287  0.86982171  0.56675581  1.0
  O  O11364  1  0.89626620  0.03648837  0.56675581  1.0
  O  O11365  1  0.89626620  0.20315504  0.56675581  1.0
  O  O11366  1  0.89626620  0.36982171  0.56675581  1.0
  O  O11367  1  0.89626620  0.53648837  0.56675581  1.0
  O  O11368  1  0.89626620  0.70315504  0.56675581  1.0
  O  O11369  1  0.89626620  0.86982171  0.56675581  1.0
  O  O11370  1  0.97959954  0.03648837  0.56675581  1.0
  O  O11371  1  0.97959954  0.20315504  0.56675581  1.0
  O  O11372  1  0.97959954  0.36982171  0.56675581  1.0
  O  O11373  1  0.97959954  0.53648837  0.56675581  1.0
  O  O11374  1  0.97959954  0.70315504  0.56675581  1.0
  O  O11375  1  0.97959954  0.86982171  0.56675581  1.0
  O  O11376  1  0.03154534  0.08796277  0.53931152  1.0
  O  O11377  1  0.03154534  0.25462943  0.53931152  1.0
  O  O11378  1  0.03154534  0.42129610  0.53931152  1.0
  O  O11379  1  0.03154534  0.58796277  0.53931152  1.0
  O  O11380  1  0.03154534  0.75462943  0.53931152  1.0
  O  O11381  1  0.03154534  0.92129610  0.53931152  1.0
  O  O11382  1  0.11487868  0.08796277  0.53931152  1.0
  O  O11383  1  0.11487868  0.25462943  0.53931152  1.0
  O  O11384  1  0.11487868  0.42129610  0.53931152  1.0
  O  O11385  1  0.11487868  0.58796277  0.53931152  1.0
  O  O11386  1  0.11487868  0.75462943  0.53931152  1.0
  O  O11387  1  0.11487868  0.92129610  0.53931152  1.0
  O  O11388  1  0.19821201  0.08796277  0.53931152  1.0
  O  O11389  1  0.19821201  0.25462943  0.53931152  1.0
  O  O11390  1  0.19821201  0.42129610  0.53931152  1.0
  O  O11391  1  0.19821201  0.58796277  0.53931152  1.0
  O  O11392  1  0.19821201  0.75462943  0.53931152  1.0
  O  O11393  1  0.19821201  0.92129610  0.53931152  1.0
  O  O11394  1  0.28154534  0.08796277  0.53931152  1.0
  O  O11395  1  0.28154534  0.25462943  0.53931152  1.0
  O  O11396  1  0.28154534  0.42129610  0.53931152  1.0
  O  O11397  1  0.28154534  0.58796277  0.53931152  1.0
  O  O11398  1  0.28154534  0.75462943  0.53931152  1.0
  O  O11399  1  0.28154534  0.92129610  0.53931152  1.0
  O  O11400  1  0.36487868  0.08796277  0.53931152  1.0
  O  O11401  1  0.36487868  0.25462943  0.53931152  1.0
  O  O11402  1  0.36487868  0.42129610  0.53931152  1.0
  O  O11403  1  0.36487868  0.58796277  0.53931152  1.0
  O  O11404  1  0.36487868  0.75462943  0.53931152  1.0
  O  O11405  1  0.36487868  0.92129610  0.53931152  1.0
  O  O11406  1  0.44821201  0.08796277  0.53931152  1.0
  O  O11407  1  0.44821201  0.25462943  0.53931152  1.0
  O  O11408  1  0.44821201  0.42129610  0.53931152  1.0
  O  O11409  1  0.44821201  0.58796277  0.53931152  1.0
  O  O11410  1  0.44821201  0.75462943  0.53931152  1.0
  O  O11411  1  0.44821201  0.92129610  0.53931152  1.0
  O  O11412  1  0.53154534  0.08796277  0.53931152  1.0
  O  O11413  1  0.53154534  0.25462943  0.53931152  1.0
  O  O11414  1  0.53154534  0.42129610  0.53931152  1.0
  O  O11415  1  0.53154534  0.58796277  0.53931152  1.0
  O  O11416  1  0.53154534  0.75462943  0.53931152  1.0
  O  O11417  1  0.53154534  0.92129610  0.53931152  1.0
  O  O11418  1  0.61487868  0.08796277  0.53931152  1.0
  O  O11419  1  0.61487868  0.25462943  0.53931152  1.0
  O  O11420  1  0.61487868  0.42129610  0.53931152  1.0
  O  O11421  1  0.61487868  0.58796277  0.53931152  1.0
  O  O11422  1  0.61487868  0.75462943  0.53931152  1.0
  O  O11423  1  0.61487868  0.92129610  0.53931152  1.0
  O  O11424  1  0.69821201  0.08796277  0.53931152  1.0
  O  O11425  1  0.69821201  0.25462943  0.53931152  1.0
  O  O11426  1  0.69821201  0.42129610  0.53931152  1.0
  O  O11427  1  0.69821201  0.58796277  0.53931152  1.0
  O  O11428  1  0.69821201  0.75462943  0.53931152  1.0
  O  O11429  1  0.69821201  0.92129610  0.53931152  1.0
  O  O11430  1  0.78154534  0.08796277  0.53931152  1.0
  O  O11431  1  0.78154534  0.25462943  0.53931152  1.0
  O  O11432  1  0.78154534  0.42129610  0.53931152  1.0
  O  O11433  1  0.78154534  0.58796277  0.53931152  1.0
  O  O11434  1  0.78154534  0.75462943  0.53931152  1.0
  O  O11435  1  0.78154534  0.92129610  0.53931152  1.0
  O  O11436  1  0.86487868  0.08796277  0.53931152  1.0
  O  O11437  1  0.86487868  0.25462943  0.53931152  1.0
  O  O11438  1  0.86487868  0.42129610  0.53931152  1.0
  O  O11439  1  0.86487868  0.58796277  0.53931152  1.0
  O  O11440  1  0.86487868  0.75462943  0.53931152  1.0
  O  O11441  1  0.86487868  0.92129610  0.53931152  1.0
  O  O11442  1  0.94821201  0.08796277  0.53931152  1.0
  O  O11443  1  0.94821201  0.25462943  0.53931152  1.0
  O  O11444  1  0.94821201  0.42129610  0.53931152  1.0
  O  O11445  1  0.94821201  0.58796277  0.53931152  1.0
  O  O11446  1  0.94821201  0.75462943  0.53931152  1.0
  O  O11447  1  0.94821201  0.92129610  0.53931152  1.0
  O  O11448  1  0.00773582  0.07605800  0.61074009  1.0
  O  O11449  1  0.00773582  0.24272467  0.61074009  1.0
  O  O11450  1  0.00773582  0.40939134  0.61074009  1.0
  O  O11451  1  0.00773582  0.57605800  0.61074009  1.0
  O  O11452  1  0.00773582  0.74272467  0.61074009  1.0
  O  O11453  1  0.00773582  0.90939134  0.61074009  1.0
  O  O11454  1  0.09106915  0.07605800  0.61074009  1.0
  O  O11455  1  0.09106915  0.24272467  0.61074009  1.0
  O  O11456  1  0.09106915  0.40939134  0.61074009  1.0
  O  O11457  1  0.09106915  0.57605800  0.61074009  1.0
  O  O11458  1  0.09106915  0.74272467  0.61074009  1.0
  O  O11459  1  0.09106915  0.90939134  0.61074009  1.0
  O  O11460  1  0.17440249  0.07605800  0.61074009  1.0
  O  O11461  1  0.17440249  0.24272467  0.61074009  1.0
  O  O11462  1  0.17440249  0.40939134  0.61074009  1.0
  O  O11463  1  0.17440249  0.57605800  0.61074009  1.0
  O  O11464  1  0.17440249  0.74272467  0.61074009  1.0
  O  O11465  1  0.17440249  0.90939134  0.61074009  1.0
  O  O11466  1  0.25773582  0.07605800  0.61074009  1.0
  O  O11467  1  0.25773582  0.24272467  0.61074009  1.0
  O  O11468  1  0.25773582  0.40939134  0.61074009  1.0
  O  O11469  1  0.25773582  0.57605800  0.61074009  1.0
  O  O11470  1  0.25773582  0.74272467  0.61074009  1.0
  O  O11471  1  0.25773582  0.90939134  0.61074009  1.0
  O  O11472  1  0.34106915  0.07605800  0.61074009  1.0
  O  O11473  1  0.34106915  0.24272467  0.61074009  1.0
  O  O11474  1  0.34106915  0.40939134  0.61074009  1.0
  O  O11475  1  0.34106915  0.57605800  0.61074009  1.0
  O  O11476  1  0.34106915  0.74272467  0.61074009  1.0
  O  O11477  1  0.34106915  0.90939134  0.61074009  1.0
  O  O11478  1  0.42440249  0.07605800  0.61074009  1.0
  O  O11479  1  0.42440249  0.24272467  0.61074009  1.0
  O  O11480  1  0.42440249  0.40939134  0.61074009  1.0
  O  O11481  1  0.42440249  0.57605800  0.61074009  1.0
  O  O11482  1  0.42440249  0.74272467  0.61074009  1.0
  O  O11483  1  0.42440249  0.90939134  0.61074009  1.0
  O  O11484  1  0.50773582  0.07605800  0.61074009  1.0
  O  O11485  1  0.50773582  0.24272467  0.61074009  1.0
  O  O11486  1  0.50773582  0.40939134  0.61074009  1.0
  O  O11487  1  0.50773582  0.57605800  0.61074009  1.0
  O  O11488  1  0.50773582  0.74272467  0.61074009  1.0
  O  O11489  1  0.50773582  0.90939134  0.61074009  1.0
  O  O11490  1  0.59106915  0.07605800  0.61074009  1.0
  O  O11491  1  0.59106915  0.24272467  0.61074009  1.0
  O  O11492  1  0.59106915  0.40939134  0.61074009  1.0
  O  O11493  1  0.59106915  0.57605800  0.61074009  1.0
  O  O11494  1  0.59106915  0.74272467  0.61074009  1.0
  O  O11495  1  0.59106915  0.90939134  0.61074009  1.0
  O  O11496  1  0.67440249  0.07605800  0.61074009  1.0
  O  O11497  1  0.67440249  0.24272467  0.61074009  1.0
  O  O11498  1  0.67440249  0.40939134  0.61074009  1.0
  O  O11499  1  0.67440249  0.57605800  0.61074009  1.0
  O  O11500  1  0.67440249  0.74272467  0.61074009  1.0
  O  O11501  1  0.67440249  0.90939134  0.61074009  1.0
  O  O11502  1  0.75773582  0.07605800  0.61074009  1.0
  O  O11503  1  0.75773582  0.24272467  0.61074009  1.0
  O  O11504  1  0.75773582  0.40939134  0.61074009  1.0
  O  O11505  1  0.75773582  0.57605800  0.61074009  1.0
  O  O11506  1  0.75773582  0.74272467  0.61074009  1.0
  O  O11507  1  0.75773582  0.90939134  0.61074009  1.0
  O  O11508  1  0.84106915  0.07605800  0.61074009  1.0
  O  O11509  1  0.84106915  0.24272467  0.61074009  1.0
  O  O11510  1  0.84106915  0.40939134  0.61074009  1.0
  O  O11511  1  0.84106915  0.57605800  0.61074009  1.0
  O  O11512  1  0.84106915  0.74272467  0.61074009  1.0
  O  O11513  1  0.84106915  0.90939134  0.61074009  1.0
  O  O11514  1  0.92440249  0.07605800  0.61074009  1.0
  O  O11515  1  0.92440249  0.24272467  0.61074009  1.0
  O  O11516  1  0.92440249  0.40939134  0.61074009  1.0
  O  O11517  1  0.92440249  0.57605800  0.61074009  1.0
  O  O11518  1  0.92440249  0.74272467  0.61074009  1.0
  O  O11519  1  0.92440249  0.90939134  0.61074009  1.0
  O  O11520  1  0.08139825  0.04683376  0.64157087  1.0
  O  O11521  1  0.08139825  0.21350042  0.64157087  1.0
  O  O11522  1  0.08139825  0.38016709  0.64157087  1.0
  O  O11523  1  0.08139825  0.54683376  0.64157087  1.0
  O  O11524  1  0.08139825  0.71350042  0.64157087  1.0
  O  O11525  1  0.08139825  0.88016709  0.64157087  1.0
  O  O11526  1  0.16473159  0.04683376  0.64157087  1.0
  O  O11527  1  0.16473159  0.21350042  0.64157087  1.0
  O  O11528  1  0.16473159  0.38016709  0.64157087  1.0
  O  O11529  1  0.16473159  0.54683376  0.64157087  1.0
  O  O11530  1  0.16473159  0.71350042  0.64157087  1.0
  O  O11531  1  0.16473159  0.88016709  0.64157087  1.0
  O  O11532  1  0.24806492  0.04683376  0.64157087  1.0
  O  O11533  1  0.24806492  0.21350042  0.64157087  1.0
  O  O11534  1  0.24806492  0.38016709  0.64157087  1.0
  O  O11535  1  0.24806492  0.54683376  0.64157087  1.0
  O  O11536  1  0.24806492  0.71350042  0.64157087  1.0
  O  O11537  1  0.24806492  0.88016709  0.64157087  1.0
  O  O11538  1  0.33139825  0.04683376  0.64157087  1.0
  O  O11539  1  0.33139825  0.21350042  0.64157087  1.0
  O  O11540  1  0.33139825  0.38016709  0.64157087  1.0
  O  O11541  1  0.33139825  0.54683376  0.64157087  1.0
  O  O11542  1  0.33139825  0.71350042  0.64157087  1.0
  O  O11543  1  0.33139825  0.88016709  0.64157087  1.0
  O  O11544  1  0.41473159  0.04683376  0.64157087  1.0
  O  O11545  1  0.41473159  0.21350042  0.64157087  1.0
  O  O11546  1  0.41473159  0.38016709  0.64157087  1.0
  O  O11547  1  0.41473159  0.54683376  0.64157087  1.0
  O  O11548  1  0.41473159  0.71350042  0.64157087  1.0
  O  O11549  1  0.41473159  0.88016709  0.64157087  1.0
  O  O11550  1  0.49806492  0.04683376  0.64157087  1.0
  O  O11551  1  0.49806492  0.21350042  0.64157087  1.0
  O  O11552  1  0.49806492  0.38016709  0.64157087  1.0
  O  O11553  1  0.49806492  0.54683376  0.64157087  1.0
  O  O11554  1  0.49806492  0.71350042  0.64157087  1.0
  O  O11555  1  0.49806492  0.88016709  0.64157087  1.0
  O  O11556  1  0.58139825  0.04683376  0.64157087  1.0
  O  O11557  1  0.58139825  0.21350042  0.64157087  1.0
  O  O11558  1  0.58139825  0.38016709  0.64157087  1.0
  O  O11559  1  0.58139825  0.54683376  0.64157087  1.0
  O  O11560  1  0.58139825  0.71350042  0.64157087  1.0
  O  O11561  1  0.58139825  0.88016709  0.64157087  1.0
  O  O11562  1  0.66473159  0.04683376  0.64157087  1.0
  O  O11563  1  0.66473159  0.21350042  0.64157087  1.0
  O  O11564  1  0.66473159  0.38016709  0.64157087  1.0
  O  O11565  1  0.66473159  0.54683376  0.64157087  1.0
  O  O11566  1  0.66473159  0.71350042  0.64157087  1.0
  O  O11567  1  0.66473159  0.88016709  0.64157087  1.0
  O  O11568  1  0.74806492  0.04683376  0.64157087  1.0
  O  O11569  1  0.74806492  0.21350042  0.64157087  1.0
  O  O11570  1  0.74806492  0.38016709  0.64157087  1.0
  O  O11571  1  0.74806492  0.54683376  0.64157087  1.0
  O  O11572  1  0.74806492  0.71350042  0.64157087  1.0
  O  O11573  1  0.74806492  0.88016709  0.64157087  1.0
  O  O11574  1  0.83139825  0.04683376  0.64157087  1.0
  O  O11575  1  0.83139825  0.21350042  0.64157087  1.0
  O  O11576  1  0.83139825  0.38016709  0.64157087  1.0
  O  O11577  1  0.83139825  0.54683376  0.64157087  1.0
  O  O11578  1  0.83139825  0.71350042  0.64157087  1.0
  O  O11579  1  0.83139825  0.88016709  0.64157087  1.0
  O  O11580  1  0.91473159  0.04683376  0.64157087  1.0
  O  O11581  1  0.91473159  0.21350042  0.64157087  1.0
  O  O11582  1  0.91473159  0.38016709  0.64157087  1.0
  O  O11583  1  0.91473159  0.54683376  0.64157087  1.0
  O  O11584  1  0.91473159  0.71350042  0.64157087  1.0
  O  O11585  1  0.91473159  0.88016709  0.64157087  1.0
  O  O11586  1  0.99806492  0.04683376  0.64157087  1.0
  O  O11587  1  0.99806492  0.21350042  0.64157087  1.0
  O  O11588  1  0.99806492  0.38016709  0.64157087  1.0
  O  O11589  1  0.99806492  0.54683376  0.64157087  1.0
  O  O11590  1  0.99806492  0.71350042  0.64157087  1.0
  O  O11591  1  0.99806492  0.88016709  0.64157087  1.0
  O  O11592  1  0.02187444  0.05873852  0.57014230  1.0
  O  O11593  1  0.02187444  0.22540518  0.57014230  1.0
  O  O11594  1  0.02187444  0.39207185  0.57014230  1.0
  O  O11595  1  0.02187444  0.55873852  0.57014230  1.0
  O  O11596  1  0.02187444  0.72540518  0.57014230  1.0
  O  O11597  1  0.02187444  0.89207185  0.57014230  1.0
  O  O11598  1  0.10520778  0.05873852  0.57014230  1.0
  O  O11599  1  0.10520778  0.22540518  0.57014230  1.0
  O  O11600  1  0.10520778  0.39207185  0.57014230  1.0
  O  O11601  1  0.10520778  0.55873852  0.57014230  1.0
  O  O11602  1  0.10520778  0.72540518  0.57014230  1.0
  O  O11603  1  0.10520778  0.89207185  0.57014230  1.0
  O  O11604  1  0.18854111  0.05873852  0.57014230  1.0
  O  O11605  1  0.18854111  0.22540518  0.57014230  1.0
  O  O11606  1  0.18854111  0.39207185  0.57014230  1.0
  O  O11607  1  0.18854111  0.55873852  0.57014230  1.0
  O  O11608  1  0.18854111  0.72540518  0.57014230  1.0
  O  O11609  1  0.18854111  0.89207185  0.57014230  1.0
  O  O11610  1  0.27187444  0.05873852  0.57014230  1.0
  O  O11611  1  0.27187444  0.22540518  0.57014230  1.0
  O  O11612  1  0.27187444  0.39207185  0.57014230  1.0
  O  O11613  1  0.27187444  0.55873852  0.57014230  1.0
  O  O11614  1  0.27187444  0.72540518  0.57014230  1.0
  O  O11615  1  0.27187444  0.89207185  0.57014230  1.0
  O  O11616  1  0.35520778  0.05873852  0.57014230  1.0
  O  O11617  1  0.35520778  0.22540518  0.57014230  1.0
  O  O11618  1  0.35520778  0.39207185  0.57014230  1.0
  O  O11619  1  0.35520778  0.55873852  0.57014230  1.0
  O  O11620  1  0.35520778  0.72540518  0.57014230  1.0
  O  O11621  1  0.35520778  0.89207185  0.57014230  1.0
  O  O11622  1  0.43854111  0.05873852  0.57014230  1.0
  O  O11623  1  0.43854111  0.22540518  0.57014230  1.0
  O  O11624  1  0.43854111  0.39207185  0.57014230  1.0
  O  O11625  1  0.43854111  0.55873852  0.57014230  1.0
  O  O11626  1  0.43854111  0.72540518  0.57014230  1.0
  O  O11627  1  0.43854111  0.89207185  0.57014230  1.0
  O  O11628  1  0.52187444  0.05873852  0.57014230  1.0
  O  O11629  1  0.52187444  0.22540518  0.57014230  1.0
  O  O11630  1  0.52187444  0.39207185  0.57014230  1.0
  O  O11631  1  0.52187444  0.55873852  0.57014230  1.0
  O  O11632  1  0.52187444  0.72540518  0.57014230  1.0
  O  O11633  1  0.52187444  0.89207185  0.57014230  1.0
  O  O11634  1  0.60520778  0.05873852  0.57014230  1.0
  O  O11635  1  0.60520778  0.22540518  0.57014230  1.0
  O  O11636  1  0.60520778  0.39207185  0.57014230  1.0
  O  O11637  1  0.60520778  0.55873852  0.57014230  1.0
  O  O11638  1  0.60520778  0.72540518  0.57014230  1.0
  O  O11639  1  0.60520778  0.89207185  0.57014230  1.0
  O  O11640  1  0.68854111  0.05873852  0.57014230  1.0
  O  O11641  1  0.68854111  0.22540518  0.57014230  1.0
  O  O11642  1  0.68854111  0.39207185  0.57014230  1.0
  O  O11643  1  0.68854111  0.55873852  0.57014230  1.0
  O  O11644  1  0.68854111  0.72540518  0.57014230  1.0
  O  O11645  1  0.68854111  0.89207185  0.57014230  1.0
  O  O11646  1  0.77187444  0.05873852  0.57014230  1.0
  O  O11647  1  0.77187444  0.22540518  0.57014230  1.0
  O  O11648  1  0.77187444  0.39207185  0.57014230  1.0
  O  O11649  1  0.77187444  0.55873852  0.57014230  1.0
  O  O11650  1  0.77187444  0.72540518  0.57014230  1.0
  O  O11651  1  0.77187444  0.89207185  0.57014230  1.0
  O  O11652  1  0.85520778  0.05873852  0.57014230  1.0
  O  O11653  1  0.85520778  0.22540518  0.57014230  1.0
  O  O11654  1  0.85520778  0.39207185  0.57014230  1.0
  O  O11655  1  0.85520778  0.55873852  0.57014230  1.0
  O  O11656  1  0.85520778  0.72540518  0.57014230  1.0
  O  O11657  1  0.85520778  0.89207185  0.57014230  1.0
  O  O11658  1  0.93854111  0.05873852  0.57014230  1.0
  O  O11659  1  0.93854111  0.22540518  0.57014230  1.0
  O  O11660  1  0.93854111  0.39207185  0.57014230  1.0
  O  O11661  1  0.93854111  0.55873852  0.57014230  1.0
  O  O11662  1  0.93854111  0.72540518  0.57014230  1.0
  O  O11663  1  0.93854111  0.89207185  0.57014230  1.0
  O  O11664  1  0.02133959  0.13307366  0.69866377  1.0
  O  O11665  1  0.02133959  0.29974033  0.69866377  1.0
  O  O11666  1  0.02133959  0.46640699  0.69866377  1.0
  O  O11667  1  0.02133959  0.63307366  0.69866377  1.0
  O  O11668  1  0.02133959  0.79974033  0.69866377  1.0
  O  O11669  1  0.02133959  0.96640699  0.69866377  1.0
  O  O11670  1  0.10467293  0.13307366  0.69866377  1.0
  O  O11671  1  0.10467293  0.29974033  0.69866377  1.0
  O  O11672  1  0.10467293  0.46640699  0.69866377  1.0
  O  O11673  1  0.10467293  0.63307366  0.69866377  1.0
  O  O11674  1  0.10467293  0.79974033  0.69866377  1.0
  O  O11675  1  0.10467293  0.96640699  0.69866377  1.0
  O  O11676  1  0.18800626  0.13307366  0.69866377  1.0
  O  O11677  1  0.18800626  0.29974033  0.69866377  1.0
  O  O11678  1  0.18800626  0.46640699  0.69866377  1.0
  O  O11679  1  0.18800626  0.63307366  0.69866377  1.0
  O  O11680  1  0.18800626  0.79974033  0.69866377  1.0
  O  O11681  1  0.18800626  0.96640699  0.69866377  1.0
  O  O11682  1  0.27133959  0.13307366  0.69866377  1.0
  O  O11683  1  0.27133959  0.29974033  0.69866377  1.0
  O  O11684  1  0.27133959  0.46640699  0.69866377  1.0
  O  O11685  1  0.27133959  0.63307366  0.69866377  1.0
  O  O11686  1  0.27133959  0.79974033  0.69866377  1.0
  O  O11687  1  0.27133959  0.96640699  0.69866377  1.0
  O  O11688  1  0.35467293  0.13307366  0.69866377  1.0
  O  O11689  1  0.35467293  0.29974033  0.69866377  1.0
  O  O11690  1  0.35467293  0.46640699  0.69866377  1.0
  O  O11691  1  0.35467293  0.63307366  0.69866377  1.0
  O  O11692  1  0.35467293  0.79974033  0.69866377  1.0
  O  O11693  1  0.35467293  0.96640699  0.69866377  1.0
  O  O11694  1  0.43800626  0.13307366  0.69866377  1.0
  O  O11695  1  0.43800626  0.29974033  0.69866377  1.0
  O  O11696  1  0.43800626  0.46640699  0.69866377  1.0
  O  O11697  1  0.43800626  0.63307366  0.69866377  1.0
  O  O11698  1  0.43800626  0.79974033  0.69866377  1.0
  O  O11699  1  0.43800626  0.96640699  0.69866377  1.0
  O  O11700  1  0.52133959  0.13307366  0.69866377  1.0
  O  O11701  1  0.52133959  0.29974033  0.69866377  1.0
  O  O11702  1  0.52133959  0.46640699  0.69866377  1.0
  O  O11703  1  0.52133959  0.63307366  0.69866377  1.0
  O  O11704  1  0.52133959  0.79974033  0.69866377  1.0
  O  O11705  1  0.52133959  0.96640699  0.69866377  1.0
  O  O11706  1  0.60467293  0.13307366  0.69866377  1.0
  O  O11707  1  0.60467293  0.29974033  0.69866377  1.0
  O  O11708  1  0.60467293  0.46640699  0.69866377  1.0
  O  O11709  1  0.60467293  0.63307366  0.69866377  1.0
  O  O11710  1  0.60467293  0.79974033  0.69866377  1.0
  O  O11711  1  0.60467293  0.96640699  0.69866377  1.0
  O  O11712  1  0.68800626  0.13307366  0.69866377  1.0
  O  O11713  1  0.68800626  0.29974033  0.69866377  1.0
  O  O11714  1  0.68800626  0.46640699  0.69866377  1.0
  O  O11715  1  0.68800626  0.63307366  0.69866377  1.0
  O  O11716  1  0.68800626  0.79974033  0.69866377  1.0
  O  O11717  1  0.68800626  0.96640699  0.69866377  1.0
  O  O11718  1  0.77133959  0.13307366  0.69866377  1.0
  O  O11719  1  0.77133959  0.29974033  0.69866377  1.0
  O  O11720  1  0.77133959  0.46640699  0.69866377  1.0
  O  O11721  1  0.77133959  0.63307366  0.69866377  1.0
  O  O11722  1  0.77133959  0.79974033  0.69866377  1.0
  O  O11723  1  0.77133959  0.96640699  0.69866377  1.0
  O  O11724  1  0.85467293  0.13307366  0.69866377  1.0
  O  O11725  1  0.85467293  0.29974033  0.69866377  1.0
  O  O11726  1  0.85467293  0.46640699  0.69866377  1.0
  O  O11727  1  0.85467293  0.63307366  0.69866377  1.0
  O  O11728  1  0.85467293  0.79974033  0.69866377  1.0
  O  O11729  1  0.85467293  0.96640699  0.69866377  1.0
  O  O11730  1  0.93800626  0.13307366  0.69866377  1.0
  O  O11731  1  0.93800626  0.29974033  0.69866377  1.0
  O  O11732  1  0.93800626  0.46640699  0.69866377  1.0
  O  O11733  1  0.93800626  0.63307366  0.69866377  1.0
  O  O11734  1  0.93800626  0.79974033  0.69866377  1.0
  O  O11735  1  0.93800626  0.96640699  0.69866377  1.0
  O  O11736  1  0.02563882  0.08825135  0.68791710  1.0
  O  O11737  1  0.02563882  0.25491802  0.68791710  1.0
  O  O11738  1  0.02563882  0.42158469  0.68791710  1.0
  O  O11739  1  0.02563882  0.58825135  0.68791710  1.0
  O  O11740  1  0.02563882  0.75491802  0.68791710  1.0
  O  O11741  1  0.02563882  0.92158469  0.68791710  1.0
  O  O11742  1  0.10897216  0.08825135  0.68791710  1.0
  O  O11743  1  0.10897216  0.25491802  0.68791710  1.0
  O  O11744  1  0.10897216  0.42158469  0.68791710  1.0
  O  O11745  1  0.10897216  0.58825135  0.68791710  1.0
  O  O11746  1  0.10897216  0.75491802  0.68791710  1.0
  O  O11747  1  0.10897216  0.92158469  0.68791710  1.0
  O  O11748  1  0.19230549  0.08825135  0.68791710  1.0
  O  O11749  1  0.19230549  0.25491802  0.68791710  1.0
  O  O11750  1  0.19230549  0.42158469  0.68791710  1.0
  O  O11751  1  0.19230549  0.58825135  0.68791710  1.0
  O  O11752  1  0.19230549  0.75491802  0.68791710  1.0
  O  O11753  1  0.19230549  0.92158469  0.68791710  1.0
  O  O11754  1  0.27563882  0.08825135  0.68791710  1.0
  O  O11755  1  0.27563882  0.25491802  0.68791710  1.0
  O  O11756  1  0.27563882  0.42158469  0.68791710  1.0
  O  O11757  1  0.27563882  0.58825135  0.68791710  1.0
  O  O11758  1  0.27563882  0.75491802  0.68791710  1.0
  O  O11759  1  0.27563882  0.92158469  0.68791710  1.0
  O  O11760  1  0.35897216  0.08825135  0.68791710  1.0
  O  O11761  1  0.35897216  0.25491802  0.68791710  1.0
  O  O11762  1  0.35897216  0.42158469  0.68791710  1.0
  O  O11763  1  0.35897216  0.58825135  0.68791710  1.0
  O  O11764  1  0.35897216  0.75491802  0.68791710  1.0
  O  O11765  1  0.35897216  0.92158469  0.68791710  1.0
  O  O11766  1  0.44230549  0.08825135  0.68791710  1.0
  O  O11767  1  0.44230549  0.25491802  0.68791710  1.0
  O  O11768  1  0.44230549  0.42158469  0.68791710  1.0
  O  O11769  1  0.44230549  0.58825135  0.68791710  1.0
  O  O11770  1  0.44230549  0.75491802  0.68791710  1.0
  O  O11771  1  0.44230549  0.92158469  0.68791710  1.0
  O  O11772  1  0.52563882  0.08825135  0.68791710  1.0
  O  O11773  1  0.52563882  0.25491802  0.68791710  1.0
  O  O11774  1  0.52563882  0.42158469  0.68791710  1.0
  O  O11775  1  0.52563882  0.58825135  0.68791710  1.0
  O  O11776  1  0.52563882  0.75491802  0.68791710  1.0
  O  O11777  1  0.52563882  0.92158469  0.68791710  1.0
  O  O11778  1  0.60897216  0.08825135  0.68791710  1.0
  O  O11779  1  0.60897216  0.25491802  0.68791710  1.0
  O  O11780  1  0.60897216  0.42158469  0.68791710  1.0
  O  O11781  1  0.60897216  0.58825135  0.68791710  1.0
  O  O11782  1  0.60897216  0.75491802  0.68791710  1.0
  O  O11783  1  0.60897216  0.92158469  0.68791710  1.0
  O  O11784  1  0.69230549  0.08825135  0.68791710  1.0
  O  O11785  1  0.69230549  0.25491802  0.68791710  1.0
  O  O11786  1  0.69230549  0.42158469  0.68791710  1.0
  O  O11787  1  0.69230549  0.58825135  0.68791710  1.0
  O  O11788  1  0.69230549  0.75491802  0.68791710  1.0
  O  O11789  1  0.69230549  0.92158469  0.68791710  1.0
  O  O11790  1  0.77563882  0.08825135  0.68791710  1.0
  O  O11791  1  0.77563882  0.25491802  0.68791710  1.0
  O  O11792  1  0.77563882  0.42158469  0.68791710  1.0
  O  O11793  1  0.77563882  0.58825135  0.68791710  1.0
  O  O11794  1  0.77563882  0.75491802  0.68791710  1.0
  O  O11795  1  0.77563882  0.92158469  0.68791710  1.0
  O  O11796  1  0.85897216  0.08825135  0.68791710  1.0
  O  O11797  1  0.85897216  0.25491802  0.68791710  1.0
  O  O11798  1  0.85897216  0.42158469  0.68791710  1.0
  O  O11799  1  0.85897216  0.58825135  0.68791710  1.0
  O  O11800  1  0.85897216  0.75491802  0.68791710  1.0
  O  O11801  1  0.85897216  0.92158469  0.68791710  1.0
  O  O11802  1  0.94230549  0.08825135  0.68791710  1.0
  O  O11803  1  0.94230549  0.25491802  0.68791710  1.0
  O  O11804  1  0.94230549  0.42158469  0.68791710  1.0
  O  O11805  1  0.94230549  0.58825135  0.68791710  1.0
  O  O11806  1  0.94230549  0.75491802  0.68791710  1.0
  O  O11807  1  0.94230549  0.92158469  0.68791710  1.0
  O  O11808  1  0.06184415  0.15569657  0.70362356  1.0
  O  O11809  1  0.06184415  0.32236324  0.70362356  1.0
  O  O11810  1  0.06184415  0.48902990  0.70362356  1.0
  O  O11811  1  0.06184415  0.65569657  0.70362356  1.0
  O  O11812  1  0.06184415  0.82236324  0.70362356  1.0
  O  O11813  1  0.06184415  0.98902990  0.70362356  1.0
  O  O11814  1  0.14517748  0.15569657  0.70362356  1.0
  O  O11815  1  0.14517748  0.32236324  0.70362356  1.0
  O  O11816  1  0.14517748  0.48902990  0.70362356  1.0
  O  O11817  1  0.14517748  0.65569657  0.70362356  1.0
  O  O11818  1  0.14517748  0.82236324  0.70362356  1.0
  O  O11819  1  0.14517748  0.98902990  0.70362356  1.0
  O  O11820  1  0.22851082  0.15569657  0.70362356  1.0
  O  O11821  1  0.22851082  0.32236324  0.70362356  1.0
  O  O11822  1  0.22851082  0.48902990  0.70362356  1.0
  O  O11823  1  0.22851082  0.65569657  0.70362356  1.0
  O  O11824  1  0.22851082  0.82236324  0.70362356  1.0
  O  O11825  1  0.22851082  0.98902990  0.70362356  1.0
  O  O11826  1  0.31184415  0.15569657  0.70362356  1.0
  O  O11827  1  0.31184415  0.32236324  0.70362356  1.0
  O  O11828  1  0.31184415  0.48902990  0.70362356  1.0
  O  O11829  1  0.31184415  0.65569657  0.70362356  1.0
  O  O11830  1  0.31184415  0.82236324  0.70362356  1.0
  O  O11831  1  0.31184415  0.98902990  0.70362356  1.0
  O  O11832  1  0.39517748  0.15569657  0.70362356  1.0
  O  O11833  1  0.39517748  0.32236324  0.70362356  1.0
  O  O11834  1  0.39517748  0.48902990  0.70362356  1.0
  O  O11835  1  0.39517748  0.65569657  0.70362356  1.0
  O  O11836  1  0.39517748  0.82236324  0.70362356  1.0
  O  O11837  1  0.39517748  0.98902990  0.70362356  1.0
  O  O11838  1  0.47851082  0.15569657  0.70362356  1.0
  O  O11839  1  0.47851082  0.32236324  0.70362356  1.0
  O  O11840  1  0.47851082  0.48902990  0.70362356  1.0
  O  O11841  1  0.47851082  0.65569657  0.70362356  1.0
  O  O11842  1  0.47851082  0.82236324  0.70362356  1.0
  O  O11843  1  0.47851082  0.98902990  0.70362356  1.0
  O  O11844  1  0.56184415  0.15569657  0.70362356  1.0
  O  O11845  1  0.56184415  0.32236324  0.70362356  1.0
  O  O11846  1  0.56184415  0.48902990  0.70362356  1.0
  O  O11847  1  0.56184415  0.65569657  0.70362356  1.0
  O  O11848  1  0.56184415  0.82236324  0.70362356  1.0
  O  O11849  1  0.56184415  0.98902990  0.70362356  1.0
  O  O11850  1  0.64517748  0.15569657  0.70362356  1.0
  O  O11851  1  0.64517748  0.32236324  0.70362356  1.0
  O  O11852  1  0.64517748  0.48902990  0.70362356  1.0
  O  O11853  1  0.64517748  0.65569657  0.70362356  1.0
  O  O11854  1  0.64517748  0.82236324  0.70362356  1.0
  O  O11855  1  0.64517748  0.98902990  0.70362356  1.0
  O  O11856  1  0.72851082  0.15569657  0.70362356  1.0
  O  O11857  1  0.72851082  0.32236324  0.70362356  1.0
  O  O11858  1  0.72851082  0.48902990  0.70362356  1.0
  O  O11859  1  0.72851082  0.65569657  0.70362356  1.0
  O  O11860  1  0.72851082  0.82236324  0.70362356  1.0
  O  O11861  1  0.72851082  0.98902990  0.70362356  1.0
  O  O11862  1  0.81184415  0.15569657  0.70362356  1.0
  O  O11863  1  0.81184415  0.32236324  0.70362356  1.0
  O  O11864  1  0.81184415  0.48902990  0.70362356  1.0
  O  O11865  1  0.81184415  0.65569657  0.70362356  1.0
  O  O11866  1  0.81184415  0.82236324  0.70362356  1.0
  O  O11867  1  0.81184415  0.98902990  0.70362356  1.0
  O  O11868  1  0.89517748  0.15569657  0.70362356  1.0
  O  O11869  1  0.89517748  0.32236324  0.70362356  1.0
  O  O11870  1  0.89517748  0.48902990  0.70362356  1.0
  O  O11871  1  0.89517748  0.65569657  0.70362356  1.0
  O  O11872  1  0.89517748  0.82236324  0.70362356  1.0
  O  O11873  1  0.89517748  0.98902990  0.70362356  1.0
  O  O11874  1  0.97851082  0.15569657  0.70362356  1.0
  O  O11875  1  0.97851082  0.32236324  0.70362356  1.0
  O  O11876  1  0.97851082  0.48902990  0.70362356  1.0
  O  O11877  1  0.97851082  0.65569657  0.70362356  1.0
  O  O11878  1  0.97851082  0.82236324  0.70362356  1.0
  O  O11879  1  0.97851082  0.98902990  0.70362356  1.0
  O  O11880  1  0.06467686  0.11073707  0.69422745  1.0
  O  O11881  1  0.06467686  0.27740373  0.69422745  1.0
  O  O11882  1  0.06467686  0.44407040  0.69422745  1.0
  O  O11883  1  0.06467686  0.61073707  0.69422745  1.0
  O  O11884  1  0.06467686  0.77740373  0.69422745  1.0
  O  O11885  1  0.06467686  0.94407040  0.69422745  1.0
  O  O11886  1  0.14801019  0.11073707  0.69422745  1.0
  O  O11887  1  0.14801019  0.27740373  0.69422745  1.0
  O  O11888  1  0.14801019  0.44407040  0.69422745  1.0
  O  O11889  1  0.14801019  0.61073707  0.69422745  1.0
  O  O11890  1  0.14801019  0.77740373  0.69422745  1.0
  O  O11891  1  0.14801019  0.94407040  0.69422745  1.0
  O  O11892  1  0.23134353  0.11073707  0.69422745  1.0
  O  O11893  1  0.23134353  0.27740373  0.69422745  1.0
  O  O11894  1  0.23134353  0.44407040  0.69422745  1.0
  O  O11895  1  0.23134353  0.61073707  0.69422745  1.0
  O  O11896  1  0.23134353  0.77740373  0.69422745  1.0
  O  O11897  1  0.23134353  0.94407040  0.69422745  1.0
  O  O11898  1  0.31467686  0.11073707  0.69422745  1.0
  O  O11899  1  0.31467686  0.27740373  0.69422745  1.0
  O  O11900  1  0.31467686  0.44407040  0.69422745  1.0
  O  O11901  1  0.31467686  0.61073707  0.69422745  1.0
  O  O11902  1  0.31467686  0.77740373  0.69422745  1.0
  O  O11903  1  0.31467686  0.94407040  0.69422745  1.0
  O  O11904  1  0.39801019  0.11073707  0.69422745  1.0
  O  O11905  1  0.39801019  0.27740373  0.69422745  1.0
  O  O11906  1  0.39801019  0.44407040  0.69422745  1.0
  O  O11907  1  0.39801019  0.61073707  0.69422745  1.0
  O  O11908  1  0.39801019  0.77740373  0.69422745  1.0
  O  O11909  1  0.39801019  0.94407040  0.69422745  1.0
  O  O11910  1  0.48134353  0.11073707  0.69422745  1.0
  O  O11911  1  0.48134353  0.27740373  0.69422745  1.0
  O  O11912  1  0.48134353  0.44407040  0.69422745  1.0
  O  O11913  1  0.48134353  0.61073707  0.69422745  1.0
  O  O11914  1  0.48134353  0.77740373  0.69422745  1.0
  O  O11915  1  0.48134353  0.94407040  0.69422745  1.0
  O  O11916  1  0.56467686  0.11073707  0.69422745  1.0
  O  O11917  1  0.56467686  0.27740373  0.69422745  1.0
  O  O11918  1  0.56467686  0.44407040  0.69422745  1.0
  O  O11919  1  0.56467686  0.61073707  0.69422745  1.0
  O  O11920  1  0.56467686  0.77740373  0.69422745  1.0
  O  O11921  1  0.56467686  0.94407040  0.69422745  1.0
  O  O11922  1  0.64801019  0.11073707  0.69422745  1.0
  O  O11923  1  0.64801019  0.27740373  0.69422745  1.0
  O  O11924  1  0.64801019  0.44407040  0.69422745  1.0
  O  O11925  1  0.64801019  0.61073707  0.69422745  1.0
  O  O11926  1  0.64801019  0.77740373  0.69422745  1.0
  O  O11927  1  0.64801019  0.94407040  0.69422745  1.0
  O  O11928  1  0.73134353  0.11073707  0.69422745  1.0
  O  O11929  1  0.73134353  0.27740373  0.69422745  1.0
  O  O11930  1  0.73134353  0.44407040  0.69422745  1.0
  O  O11931  1  0.73134353  0.61073707  0.69422745  1.0
  O  O11932  1  0.73134353  0.77740373  0.69422745  1.0
  O  O11933  1  0.73134353  0.94407040  0.69422745  1.0
  O  O11934  1  0.81467686  0.11073707  0.69422745  1.0
  O  O11935  1  0.81467686  0.27740373  0.69422745  1.0
  O  O11936  1  0.81467686  0.44407040  0.69422745  1.0
  O  O11937  1  0.81467686  0.61073707  0.69422745  1.0
  O  O11938  1  0.81467686  0.77740373  0.69422745  1.0
  O  O11939  1  0.81467686  0.94407040  0.69422745  1.0
  O  O11940  1  0.89801019  0.11073707  0.69422745  1.0
  O  O11941  1  0.89801019  0.27740373  0.69422745  1.0
  O  O11942  1  0.89801019  0.44407040  0.69422745  1.0
  O  O11943  1  0.89801019  0.61073707  0.69422745  1.0
  O  O11944  1  0.89801019  0.77740373  0.69422745  1.0
  O  O11945  1  0.89801019  0.94407040  0.69422745  1.0
  O  O11946  1  0.98134353  0.11073707  0.69422745  1.0
  O  O11947  1  0.98134353  0.27740373  0.69422745  1.0
  O  O11948  1  0.98134353  0.44407040  0.69422745  1.0
  O  O11949  1  0.98134353  0.61073707  0.69422745  1.0
  O  O11950  1  0.98134353  0.77740373  0.69422745  1.0
  O  O11951  1  0.98134353  0.94407040  0.69422745  1.0
  O  O11952  1  0.03439564  0.11741190  0.65806964  1.0
  O  O11953  1  0.03439564  0.28407857  0.65806964  1.0
  O  O11954  1  0.03439564  0.45074524  0.65806964  1.0
  O  O11955  1  0.03439564  0.61741190  0.65806964  1.0
  O  O11956  1  0.03439564  0.78407857  0.65806964  1.0
  O  O11957  1  0.03439564  0.95074524  0.65806964  1.0
  O  O11958  1  0.11772898  0.11741190  0.65806964  1.0
  O  O11959  1  0.11772898  0.28407857  0.65806964  1.0
  O  O11960  1  0.11772898  0.45074524  0.65806964  1.0
  O  O11961  1  0.11772898  0.61741190  0.65806964  1.0
  O  O11962  1  0.11772898  0.78407857  0.65806964  1.0
  O  O11963  1  0.11772898  0.95074524  0.65806964  1.0
  O  O11964  1  0.20106231  0.11741190  0.65806964  1.0
  O  O11965  1  0.20106231  0.28407857  0.65806964  1.0
  O  O11966  1  0.20106231  0.45074524  0.65806964  1.0
  O  O11967  1  0.20106231  0.61741190  0.65806964  1.0
  O  O11968  1  0.20106231  0.78407857  0.65806964  1.0
  O  O11969  1  0.20106231  0.95074524  0.65806964  1.0
  O  O11970  1  0.28439564  0.11741190  0.65806964  1.0
  O  O11971  1  0.28439564  0.28407857  0.65806964  1.0
  O  O11972  1  0.28439564  0.45074524  0.65806964  1.0
  O  O11973  1  0.28439564  0.61741190  0.65806964  1.0
  O  O11974  1  0.28439564  0.78407857  0.65806964  1.0
  O  O11975  1  0.28439564  0.95074524  0.65806964  1.0
  O  O11976  1  0.36772898  0.11741190  0.65806964  1.0
  O  O11977  1  0.36772898  0.28407857  0.65806964  1.0
  O  O11978  1  0.36772898  0.45074524  0.65806964  1.0
  O  O11979  1  0.36772898  0.61741190  0.65806964  1.0
  O  O11980  1  0.36772898  0.78407857  0.65806964  1.0
  O  O11981  1  0.36772898  0.95074524  0.65806964  1.0
  O  O11982  1  0.45106231  0.11741190  0.65806964  1.0
  O  O11983  1  0.45106231  0.28407857  0.65806964  1.0
  O  O11984  1  0.45106231  0.45074524  0.65806964  1.0
  O  O11985  1  0.45106231  0.61741190  0.65806964  1.0
  O  O11986  1  0.45106231  0.78407857  0.65806964  1.0
  O  O11987  1  0.45106231  0.95074524  0.65806964  1.0
  O  O11988  1  0.53439564  0.11741190  0.65806964  1.0
  O  O11989  1  0.53439564  0.28407857  0.65806964  1.0
  O  O11990  1  0.53439564  0.45074524  0.65806964  1.0
  O  O11991  1  0.53439564  0.61741190  0.65806964  1.0
  O  O11992  1  0.53439564  0.78407857  0.65806964  1.0
  O  O11993  1  0.53439564  0.95074524  0.65806964  1.0
  O  O11994  1  0.61772898  0.11741190  0.65806964  1.0
  O  O11995  1  0.61772898  0.28407857  0.65806964  1.0
  O  O11996  1  0.61772898  0.45074524  0.65806964  1.0
  O  O11997  1  0.61772898  0.61741190  0.65806964  1.0
  O  O11998  1  0.61772898  0.78407857  0.65806964  1.0
  O  O11999  1  0.61772898  0.95074524  0.65806964  1.0
  O  O12000  1  0.70106231  0.11741190  0.65806964  1.0
  O  O12001  1  0.70106231  0.28407857  0.65806964  1.0
  O  O12002  1  0.70106231  0.45074524  0.65806964  1.0
  O  O12003  1  0.70106231  0.61741190  0.65806964  1.0
  O  O12004  1  0.70106231  0.78407857  0.65806964  1.0
  O  O12005  1  0.70106231  0.95074524  0.65806964  1.0
  O  O12006  1  0.78439564  0.11741190  0.65806964  1.0
  O  O12007  1  0.78439564  0.28407857  0.65806964  1.0
  O  O12008  1  0.78439564  0.45074524  0.65806964  1.0
  O  O12009  1  0.78439564  0.61741190  0.65806964  1.0
  O  O12010  1  0.78439564  0.78407857  0.65806964  1.0
  O  O12011  1  0.78439564  0.95074524  0.65806964  1.0
  O  O12012  1  0.86772898  0.11741190  0.65806964  1.0
  O  O12013  1  0.86772898  0.28407857  0.65806964  1.0
  O  O12014  1  0.86772898  0.45074524  0.65806964  1.0
  O  O12015  1  0.86772898  0.61741190  0.65806964  1.0
  O  O12016  1  0.86772898  0.78407857  0.65806964  1.0
  O  O12017  1  0.86772898  0.95074524  0.65806964  1.0
  O  O12018  1  0.95106231  0.11741190  0.65806964  1.0
  O  O12019  1  0.95106231  0.28407857  0.65806964  1.0
  O  O12020  1  0.95106231  0.45074524  0.65806964  1.0
  O  O12021  1  0.95106231  0.61741190  0.65806964  1.0
  O  O12022  1  0.95106231  0.78407857  0.65806964  1.0
  O  O12023  1  0.95106231  0.95074524  0.65806964  1.0
  O  O12024  1  0.03156594  0.16236721  0.66747073  1.0
  O  O12025  1  0.03156594  0.32903388  0.66747073  1.0
  O  O12026  1  0.03156594  0.49570055  0.66747073  1.0
  O  O12027  1  0.03156594  0.66236721  0.66747073  1.0
  O  O12028  1  0.03156594  0.82903388  0.66747073  1.0
  O  O12029  1  0.03156594  0.99570055  0.66747073  1.0
  O  O12030  1  0.11489927  0.16236721  0.66747073  1.0
  O  O12031  1  0.11489927  0.32903388  0.66747073  1.0
  O  O12032  1  0.11489927  0.49570055  0.66747073  1.0
  O  O12033  1  0.11489927  0.66236721  0.66747073  1.0
  O  O12034  1  0.11489927  0.82903388  0.66747073  1.0
  O  O12035  1  0.11489927  0.99570055  0.66747073  1.0
  O  O12036  1  0.19823261  0.16236721  0.66747073  1.0
  O  O12037  1  0.19823261  0.32903388  0.66747073  1.0
  O  O12038  1  0.19823261  0.49570055  0.66747073  1.0
  O  O12039  1  0.19823261  0.66236721  0.66747073  1.0
  O  O12040  1  0.19823261  0.82903388  0.66747073  1.0
  O  O12041  1  0.19823261  0.99570055  0.66747073  1.0
  O  O12042  1  0.28156594  0.16236721  0.66747073  1.0
  O  O12043  1  0.28156594  0.32903388  0.66747073  1.0
  O  O12044  1  0.28156594  0.49570055  0.66747073  1.0
  O  O12045  1  0.28156594  0.66236721  0.66747073  1.0
  O  O12046  1  0.28156594  0.82903388  0.66747073  1.0
  O  O12047  1  0.28156594  0.99570055  0.66747073  1.0
  O  O12048  1  0.36489927  0.16236721  0.66747073  1.0
  O  O12049  1  0.36489927  0.32903388  0.66747073  1.0
  O  O12050  1  0.36489927  0.49570055  0.66747073  1.0
  O  O12051  1  0.36489927  0.66236721  0.66747073  1.0
  O  O12052  1  0.36489927  0.82903388  0.66747073  1.0
  O  O12053  1  0.36489927  0.99570055  0.66747073  1.0
  O  O12054  1  0.44823261  0.16236721  0.66747073  1.0
  O  O12055  1  0.44823261  0.32903388  0.66747073  1.0
  O  O12056  1  0.44823261  0.49570055  0.66747073  1.0
  O  O12057  1  0.44823261  0.66236721  0.66747073  1.0
  O  O12058  1  0.44823261  0.82903388  0.66747073  1.0
  O  O12059  1  0.44823261  0.99570055  0.66747073  1.0
  O  O12060  1  0.53156594  0.16236721  0.66747073  1.0
  O  O12061  1  0.53156594  0.32903388  0.66747073  1.0
  O  O12062  1  0.53156594  0.49570055  0.66747073  1.0
  O  O12063  1  0.53156594  0.66236721  0.66747073  1.0
  O  O12064  1  0.53156594  0.82903388  0.66747073  1.0
  O  O12065  1  0.53156594  0.99570055  0.66747073  1.0
  O  O12066  1  0.61489927  0.16236721  0.66747073  1.0
  O  O12067  1  0.61489927  0.32903388  0.66747073  1.0
  O  O12068  1  0.61489927  0.49570055  0.66747073  1.0
  O  O12069  1  0.61489927  0.66236721  0.66747073  1.0
  O  O12070  1  0.61489927  0.82903388  0.66747073  1.0
  O  O12071  1  0.61489927  0.99570055  0.66747073  1.0
  O  O12072  1  0.69823261  0.16236721  0.66747073  1.0
  O  O12073  1  0.69823261  0.32903388  0.66747073  1.0
  O  O12074  1  0.69823261  0.49570055  0.66747073  1.0
  O  O12075  1  0.69823261  0.66236721  0.66747073  1.0
  O  O12076  1  0.69823261  0.82903388  0.66747073  1.0
  O  O12077  1  0.69823261  0.99570055  0.66747073  1.0
  O  O12078  1  0.78156594  0.16236721  0.66747073  1.0
  O  O12079  1  0.78156594  0.32903388  0.66747073  1.0
  O  O12080  1  0.78156594  0.49570055  0.66747073  1.0
  O  O12081  1  0.78156594  0.66236721  0.66747073  1.0
  O  O12082  1  0.78156594  0.82903388  0.66747073  1.0
  O  O12083  1  0.78156594  0.99570055  0.66747073  1.0
  O  O12084  1  0.86489927  0.16236721  0.66747073  1.0
  O  O12085  1  0.86489927  0.32903388  0.66747073  1.0
  O  O12086  1  0.86489927  0.49570055  0.66747073  1.0
  O  O12087  1  0.86489927  0.66236721  0.66747073  1.0
  O  O12088  1  0.86489927  0.82903388  0.66747073  1.0
  O  O12089  1  0.86489927  0.99570055  0.66747073  1.0
  O  O12090  1  0.94823261  0.16236721  0.66747073  1.0
  O  O12091  1  0.94823261  0.32903388  0.66747073  1.0
  O  O12092  1  0.94823261  0.49570055  0.66747073  1.0
  O  O12093  1  0.94823261  0.66236721  0.66747073  1.0
  O  O12094  1  0.94823261  0.82903388  0.66747073  1.0
  O  O12095  1  0.94823261  0.99570055  0.66747073  1.0
  O  O12096  1  0.02902233  0.04226982  0.67949686  1.0
  O  O12097  1  0.02902233  0.20893649  0.67949686  1.0
  O  O12098  1  0.02902233  0.37560315  0.67949686  1.0
  O  O12099  1  0.02902233  0.54226982  0.67949686  1.0
  O  O12100  1  0.02902233  0.70893649  0.67949686  1.0
  O  O12101  1  0.02902233  0.87560315  0.67949686  1.0
  O  O12102  1  0.11235566  0.04226982  0.67949686  1.0
  O  O12103  1  0.11235566  0.20893649  0.67949686  1.0
  O  O12104  1  0.11235566  0.37560315  0.67949686  1.0
  O  O12105  1  0.11235566  0.54226982  0.67949686  1.0
  O  O12106  1  0.11235566  0.70893649  0.67949686  1.0
  O  O12107  1  0.11235566  0.87560315  0.67949686  1.0
  O  O12108  1  0.19568900  0.04226982  0.67949686  1.0
  O  O12109  1  0.19568900  0.20893649  0.67949686  1.0
  O  O12110  1  0.19568900  0.37560315  0.67949686  1.0
  O  O12111  1  0.19568900  0.54226982  0.67949686  1.0
  O  O12112  1  0.19568900  0.70893649  0.67949686  1.0
  O  O12113  1  0.19568900  0.87560315  0.67949686  1.0
  O  O12114  1  0.27902233  0.04226982  0.67949686  1.0
  O  O12115  1  0.27902233  0.20893649  0.67949686  1.0
  O  O12116  1  0.27902233  0.37560315  0.67949686  1.0
  O  O12117  1  0.27902233  0.54226982  0.67949686  1.0
  O  O12118  1  0.27902233  0.70893649  0.67949686  1.0
  O  O12119  1  0.27902233  0.87560315  0.67949686  1.0
  O  O12120  1  0.36235566  0.04226982  0.67949686  1.0
  O  O12121  1  0.36235566  0.20893649  0.67949686  1.0
  O  O12122  1  0.36235566  0.37560315  0.67949686  1.0
  O  O12123  1  0.36235566  0.54226982  0.67949686  1.0
  O  O12124  1  0.36235566  0.70893649  0.67949686  1.0
  O  O12125  1  0.36235566  0.87560315  0.67949686  1.0
  O  O12126  1  0.44568900  0.04226982  0.67949686  1.0
  O  O12127  1  0.44568900  0.20893649  0.67949686  1.0
  O  O12128  1  0.44568900  0.37560315  0.67949686  1.0
  O  O12129  1  0.44568900  0.54226982  0.67949686  1.0
  O  O12130  1  0.44568900  0.70893649  0.67949686  1.0
  O  O12131  1  0.44568900  0.87560315  0.67949686  1.0
  O  O12132  1  0.52902233  0.04226982  0.67949686  1.0
  O  O12133  1  0.52902233  0.20893649  0.67949686  1.0
  O  O12134  1  0.52902233  0.37560315  0.67949686  1.0
  O  O12135  1  0.52902233  0.54226982  0.67949686  1.0
  O  O12136  1  0.52902233  0.70893649  0.67949686  1.0
  O  O12137  1  0.52902233  0.87560315  0.67949686  1.0
  O  O12138  1  0.61235566  0.04226982  0.67949686  1.0
  O  O12139  1  0.61235566  0.20893649  0.67949686  1.0
  O  O12140  1  0.61235566  0.37560315  0.67949686  1.0
  O  O12141  1  0.61235566  0.54226982  0.67949686  1.0
  O  O12142  1  0.61235566  0.70893649  0.67949686  1.0
  O  O12143  1  0.61235566  0.87560315  0.67949686  1.0
  O  O12144  1  0.69568900  0.04226982  0.67949686  1.0
  O  O12145  1  0.69568900  0.20893649  0.67949686  1.0
  O  O12146  1  0.69568900  0.37560315  0.67949686  1.0
  O  O12147  1  0.69568900  0.54226982  0.67949686  1.0
  O  O12148  1  0.69568900  0.70893649  0.67949686  1.0
  O  O12149  1  0.69568900  0.87560315  0.67949686  1.0
  O  O12150  1  0.77902233  0.04226982  0.67949686  1.0
  O  O12151  1  0.77902233  0.20893649  0.67949686  1.0
  O  O12152  1  0.77902233  0.37560315  0.67949686  1.0
  O  O12153  1  0.77902233  0.54226982  0.67949686  1.0
  O  O12154  1  0.77902233  0.70893649  0.67949686  1.0
  O  O12155  1  0.77902233  0.87560315  0.67949686  1.0
  O  O12156  1  0.86235566  0.04226982  0.67949686  1.0
  O  O12157  1  0.86235566  0.20893649  0.67949686  1.0
  O  O12158  1  0.86235566  0.37560315  0.67949686  1.0
  O  O12159  1  0.86235566  0.54226982  0.67949686  1.0
  O  O12160  1  0.86235566  0.70893649  0.67949686  1.0
  O  O12161  1  0.86235566  0.87560315  0.67949686  1.0
  O  O12162  1  0.94568900  0.04226982  0.67949686  1.0
  O  O12163  1  0.94568900  0.20893649  0.67949686  1.0
  O  O12164  1  0.94568900  0.37560315  0.67949686  1.0
  O  O12165  1  0.94568900  0.54226982  0.67949686  1.0
  O  O12166  1  0.94568900  0.70893649  0.67949686  1.0
  O  O12167  1  0.94568900  0.87560315  0.67949686  1.0
  O  O12168  1  0.07490036  0.14007042  0.66305896  1.0
  O  O12169  1  0.07490036  0.30673708  0.66305896  1.0
  O  O12170  1  0.07490036  0.47340375  0.66305896  1.0
  O  O12171  1  0.07490036  0.64007042  0.66305896  1.0
  O  O12172  1  0.07490036  0.80673708  0.66305896  1.0
  O  O12173  1  0.07490036  0.97340375  0.66305896  1.0
  O  O12174  1  0.15823369  0.14007042  0.66305896  1.0
  O  O12175  1  0.15823369  0.30673708  0.66305896  1.0
  O  O12176  1  0.15823369  0.47340375  0.66305896  1.0
  O  O12177  1  0.15823369  0.64007042  0.66305896  1.0
  O  O12178  1  0.15823369  0.80673708  0.66305896  1.0
  O  O12179  1  0.15823369  0.97340375  0.66305896  1.0
  O  O12180  1  0.24156702  0.14007042  0.66305896  1.0
  O  O12181  1  0.24156702  0.30673708  0.66305896  1.0
  O  O12182  1  0.24156702  0.47340375  0.66305896  1.0
  O  O12183  1  0.24156702  0.64007042  0.66305896  1.0
  O  O12184  1  0.24156702  0.80673708  0.66305896  1.0
  O  O12185  1  0.24156702  0.97340375  0.66305896  1.0
  O  O12186  1  0.32490036  0.14007042  0.66305896  1.0
  O  O12187  1  0.32490036  0.30673708  0.66305896  1.0
  O  O12188  1  0.32490036  0.47340375  0.66305896  1.0
  O  O12189  1  0.32490036  0.64007042  0.66305896  1.0
  O  O12190  1  0.32490036  0.80673708  0.66305896  1.0
  O  O12191  1  0.32490036  0.97340375  0.66305896  1.0
  O  O12192  1  0.40823369  0.14007042  0.66305896  1.0
  O  O12193  1  0.40823369  0.30673708  0.66305896  1.0
  O  O12194  1  0.40823369  0.47340375  0.66305896  1.0
  O  O12195  1  0.40823369  0.64007042  0.66305896  1.0
  O  O12196  1  0.40823369  0.80673708  0.66305896  1.0
  O  O12197  1  0.40823369  0.97340375  0.66305896  1.0
  O  O12198  1  0.49156702  0.14007042  0.66305896  1.0
  O  O12199  1  0.49156702  0.30673708  0.66305896  1.0
  O  O12200  1  0.49156702  0.47340375  0.66305896  1.0
  O  O12201  1  0.49156702  0.64007042  0.66305896  1.0
  O  O12202  1  0.49156702  0.80673708  0.66305896  1.0
  O  O12203  1  0.49156702  0.97340375  0.66305896  1.0
  O  O12204  1  0.57490036  0.14007042  0.66305896  1.0
  O  O12205  1  0.57490036  0.30673708  0.66305896  1.0
  O  O12206  1  0.57490036  0.47340375  0.66305896  1.0
  O  O12207  1  0.57490036  0.64007042  0.66305896  1.0
  O  O12208  1  0.57490036  0.80673708  0.66305896  1.0
  O  O12209  1  0.57490036  0.97340375  0.66305896  1.0
  O  O12210  1  0.65823369  0.14007042  0.66305896  1.0
  O  O12211  1  0.65823369  0.30673708  0.66305896  1.0
  O  O12212  1  0.65823369  0.47340375  0.66305896  1.0
  O  O12213  1  0.65823369  0.64007042  0.66305896  1.0
  O  O12214  1  0.65823369  0.80673708  0.66305896  1.0
  O  O12215  1  0.65823369  0.97340375  0.66305896  1.0
  O  O12216  1  0.74156702  0.14007042  0.66305896  1.0
  O  O12217  1  0.74156702  0.30673708  0.66305896  1.0
  O  O12218  1  0.74156702  0.47340375  0.66305896  1.0
  O  O12219  1  0.74156702  0.64007042  0.66305896  1.0
  O  O12220  1  0.74156702  0.80673708  0.66305896  1.0
  O  O12221  1  0.74156702  0.97340375  0.66305896  1.0
  O  O12222  1  0.82490036  0.14007042  0.66305896  1.0
  O  O12223  1  0.82490036  0.30673708  0.66305896  1.0
  O  O12224  1  0.82490036  0.47340375  0.66305896  1.0
  O  O12225  1  0.82490036  0.64007042  0.66305896  1.0
  O  O12226  1  0.82490036  0.80673708  0.66305896  1.0
  O  O12227  1  0.82490036  0.97340375  0.66305896  1.0
  O  O12228  1  0.90823369  0.14007042  0.66305896  1.0
  O  O12229  1  0.90823369  0.30673708  0.66305896  1.0
  O  O12230  1  0.90823369  0.47340375  0.66305896  1.0
  O  O12231  1  0.90823369  0.64007042  0.66305896  1.0
  O  O12232  1  0.90823369  0.80673708  0.66305896  1.0
  O  O12233  1  0.90823369  0.97340375  0.66305896  1.0
  O  O12234  1  0.99156702  0.14007042  0.66305896  1.0
  O  O12235  1  0.99156702  0.30673708  0.66305896  1.0
  O  O12236  1  0.99156702  0.47340375  0.66305896  1.0
  O  O12237  1  0.99156702  0.64007042  0.66305896  1.0
  O  O12238  1  0.99156702  0.80673708  0.66305896  1.0
  O  O12239  1  0.99156702  0.97340375  0.66305896  1.0
  O  O12240  1  0.03868523  0.07156913  0.64871251  1.0
  O  O12241  1  0.03868523  0.23823579  0.64871251  1.0
  O  O12242  1  0.03868523  0.40490246  0.64871251  1.0
  O  O12243  1  0.03868523  0.57156913  0.64871251  1.0
  O  O12244  1  0.03868523  0.73823579  0.64871251  1.0
  O  O12245  1  0.03868523  0.90490246  0.64871251  1.0
  O  O12246  1  0.12201856  0.07156913  0.64871251  1.0
  O  O12247  1  0.12201856  0.23823579  0.64871251  1.0
  O  O12248  1  0.12201856  0.40490246  0.64871251  1.0
  O  O12249  1  0.12201856  0.57156913  0.64871251  1.0
  O  O12250  1  0.12201856  0.73823579  0.64871251  1.0
  O  O12251  1  0.12201856  0.90490246  0.64871251  1.0
  O  O12252  1  0.20535190  0.07156913  0.64871251  1.0
  O  O12253  1  0.20535190  0.23823579  0.64871251  1.0
  O  O12254  1  0.20535190  0.40490246  0.64871251  1.0
  O  O12255  1  0.20535190  0.57156913  0.64871251  1.0
  O  O12256  1  0.20535190  0.73823579  0.64871251  1.0
  O  O12257  1  0.20535190  0.90490246  0.64871251  1.0
  O  O12258  1  0.28868523  0.07156913  0.64871251  1.0
  O  O12259  1  0.28868523  0.23823579  0.64871251  1.0
  O  O12260  1  0.28868523  0.40490246  0.64871251  1.0
  O  O12261  1  0.28868523  0.57156913  0.64871251  1.0
  O  O12262  1  0.28868523  0.73823579  0.64871251  1.0
  O  O12263  1  0.28868523  0.90490246  0.64871251  1.0
  O  O12264  1  0.37201856  0.07156913  0.64871251  1.0
  O  O12265  1  0.37201856  0.23823579  0.64871251  1.0
  O  O12266  1  0.37201856  0.40490246  0.64871251  1.0
  O  O12267  1  0.37201856  0.57156913  0.64871251  1.0
  O  O12268  1  0.37201856  0.73823579  0.64871251  1.0
  O  O12269  1  0.37201856  0.90490246  0.64871251  1.0
  O  O12270  1  0.45535190  0.07156913  0.64871251  1.0
  O  O12271  1  0.45535190  0.23823579  0.64871251  1.0
  O  O12272  1  0.45535190  0.40490246  0.64871251  1.0
  O  O12273  1  0.45535190  0.57156913  0.64871251  1.0
  O  O12274  1  0.45535190  0.73823579  0.64871251  1.0
  O  O12275  1  0.45535190  0.90490246  0.64871251  1.0
  O  O12276  1  0.53868523  0.07156913  0.64871251  1.0
  O  O12277  1  0.53868523  0.23823579  0.64871251  1.0
  O  O12278  1  0.53868523  0.40490246  0.64871251  1.0
  O  O12279  1  0.53868523  0.57156913  0.64871251  1.0
  O  O12280  1  0.53868523  0.73823579  0.64871251  1.0
  O  O12281  1  0.53868523  0.90490246  0.64871251  1.0
  O  O12282  1  0.62201856  0.07156913  0.64871251  1.0
  O  O12283  1  0.62201856  0.23823579  0.64871251  1.0
  O  O12284  1  0.62201856  0.40490246  0.64871251  1.0
  O  O12285  1  0.62201856  0.57156913  0.64871251  1.0
  O  O12286  1  0.62201856  0.73823579  0.64871251  1.0
  O  O12287  1  0.62201856  0.90490246  0.64871251  1.0
  O  O12288  1  0.70535190  0.07156913  0.64871251  1.0
  O  O12289  1  0.70535190  0.23823579  0.64871251  1.0
  O  O12290  1  0.70535190  0.40490246  0.64871251  1.0
  O  O12291  1  0.70535190  0.57156913  0.64871251  1.0
  O  O12292  1  0.70535190  0.73823579  0.64871251  1.0
  O  O12293  1  0.70535190  0.90490246  0.64871251  1.0
  O  O12294  1  0.78868523  0.07156913  0.64871251  1.0
  O  O12295  1  0.78868523  0.23823579  0.64871251  1.0
  O  O12296  1  0.78868523  0.40490246  0.64871251  1.0
  O  O12297  1  0.78868523  0.57156913  0.64871251  1.0
  O  O12298  1  0.78868523  0.73823579  0.64871251  1.0
  O  O12299  1  0.78868523  0.90490246  0.64871251  1.0
  O  O12300  1  0.87201856  0.07156913  0.64871251  1.0
  O  O12301  1  0.87201856  0.23823579  0.64871251  1.0
  O  O12302  1  0.87201856  0.40490246  0.64871251  1.0
  O  O12303  1  0.87201856  0.57156913  0.64871251  1.0
  O  O12304  1  0.87201856  0.73823579  0.64871251  1.0
  O  O12305  1  0.87201856  0.90490246  0.64871251  1.0
  O  O12306  1  0.95535190  0.07156913  0.64871251  1.0
  O  O12307  1  0.95535190  0.23823579  0.64871251  1.0
  O  O12308  1  0.95535190  0.40490246  0.64871251  1.0
  O  O12309  1  0.95535190  0.57156913  0.64871251  1.0
  O  O12310  1  0.95535190  0.73823579  0.64871251  1.0
  O  O12311  1  0.95535190  0.90490246  0.64871251  1.0
  O  O12312  1  0.08089917  0.09373673  0.65209227  1.0
  O  O12313  1  0.08089917  0.26040339  0.65209227  1.0
  O  O12314  1  0.08089917  0.42707006  0.65209227  1.0
  O  O12315  1  0.08089917  0.59373673  0.65209227  1.0
  O  O12316  1  0.08089917  0.76040339  0.65209227  1.0
  O  O12317  1  0.08089917  0.92707006  0.65209227  1.0
  O  O12318  1  0.16423251  0.09373673  0.65209227  1.0
  O  O12319  1  0.16423251  0.26040339  0.65209227  1.0
  O  O12320  1  0.16423251  0.42707006  0.65209227  1.0
  O  O12321  1  0.16423251  0.59373673  0.65209227  1.0
  O  O12322  1  0.16423251  0.76040339  0.65209227  1.0
  O  O12323  1  0.16423251  0.92707006  0.65209227  1.0
  O  O12324  1  0.24756584  0.09373673  0.65209227  1.0
  O  O12325  1  0.24756584  0.26040339  0.65209227  1.0
  O  O12326  1  0.24756584  0.42707006  0.65209227  1.0
  O  O12327  1  0.24756584  0.59373673  0.65209227  1.0
  O  O12328  1  0.24756584  0.76040339  0.65209227  1.0
  O  O12329  1  0.24756584  0.92707006  0.65209227  1.0
  O  O12330  1  0.33089917  0.09373673  0.65209227  1.0
  O  O12331  1  0.33089917  0.26040339  0.65209227  1.0
  O  O12332  1  0.33089917  0.42707006  0.65209227  1.0
  O  O12333  1  0.33089917  0.59373673  0.65209227  1.0
  O  O12334  1  0.33089917  0.76040339  0.65209227  1.0
  O  O12335  1  0.33089917  0.92707006  0.65209227  1.0
  O  O12336  1  0.41423251  0.09373673  0.65209227  1.0
  O  O12337  1  0.41423251  0.26040339  0.65209227  1.0
  O  O12338  1  0.41423251  0.42707006  0.65209227  1.0
  O  O12339  1  0.41423251  0.59373673  0.65209227  1.0
  O  O12340  1  0.41423251  0.76040339  0.65209227  1.0
  O  O12341  1  0.41423251  0.92707006  0.65209227  1.0
  O  O12342  1  0.49756584  0.09373673  0.65209227  1.0
  O  O12343  1  0.49756584  0.26040339  0.65209227  1.0
  O  O12344  1  0.49756584  0.42707006  0.65209227  1.0
  O  O12345  1  0.49756584  0.59373673  0.65209227  1.0
  O  O12346  1  0.49756584  0.76040339  0.65209227  1.0
  O  O12347  1  0.49756584  0.92707006  0.65209227  1.0
  O  O12348  1  0.58089917  0.09373673  0.65209227  1.0
  O  O12349  1  0.58089917  0.26040339  0.65209227  1.0
  O  O12350  1  0.58089917  0.42707006  0.65209227  1.0
  O  O12351  1  0.58089917  0.59373673  0.65209227  1.0
  O  O12352  1  0.58089917  0.76040339  0.65209227  1.0
  O  O12353  1  0.58089917  0.92707006  0.65209227  1.0
  O  O12354  1  0.66423251  0.09373673  0.65209227  1.0
  O  O12355  1  0.66423251  0.26040339  0.65209227  1.0
  O  O12356  1  0.66423251  0.42707006  0.65209227  1.0
  O  O12357  1  0.66423251  0.59373673  0.65209227  1.0
  O  O12358  1  0.66423251  0.76040339  0.65209227  1.0
  O  O12359  1  0.66423251  0.92707006  0.65209227  1.0
  O  O12360  1  0.74756584  0.09373673  0.65209227  1.0
  O  O12361  1  0.74756584  0.26040339  0.65209227  1.0
  O  O12362  1  0.74756584  0.42707006  0.65209227  1.0
  O  O12363  1  0.74756584  0.59373673  0.65209227  1.0
  O  O12364  1  0.74756584  0.76040339  0.65209227  1.0
  O  O12365  1  0.74756584  0.92707006  0.65209227  1.0
  O  O12366  1  0.83089917  0.09373673  0.65209227  1.0
  O  O12367  1  0.83089917  0.26040339  0.65209227  1.0
  O  O12368  1  0.83089917  0.42707006  0.65209227  1.0
  O  O12369  1  0.83089917  0.59373673  0.65209227  1.0
  O  O12370  1  0.83089917  0.76040339  0.65209227  1.0
  O  O12371  1  0.83089917  0.92707006  0.65209227  1.0
  O  O12372  1  0.91423251  0.09373673  0.65209227  1.0
  O  O12373  1  0.91423251  0.26040339  0.65209227  1.0
  O  O12374  1  0.91423251  0.42707006  0.65209227  1.0
  O  O12375  1  0.91423251  0.59373673  0.65209227  1.0
  O  O12376  1  0.91423251  0.76040339  0.65209227  1.0
  O  O12377  1  0.91423251  0.92707006  0.65209227  1.0
  O  O12378  1  0.99756584  0.09373673  0.65209227  1.0
  O  O12379  1  0.99756584  0.26040339  0.65209227  1.0
  O  O12380  1  0.99756584  0.42707006  0.65209227  1.0
  O  O12381  1  0.99756584  0.59373673  0.65209227  1.0
  O  O12382  1  0.99756584  0.76040339  0.65209227  1.0
  O  O12383  1  0.99756584  0.92707006  0.65209227  1.0
  O  O12384  1  0.07060946  0.01821213  0.67379131  1.0
  O  O12385  1  0.07060946  0.18487880  0.67379131  1.0
  O  O12386  1  0.07060946  0.35154546  0.67379131  1.0
  O  O12387  1  0.07060946  0.51821213  0.67379131  1.0
  O  O12388  1  0.07060946  0.68487880  0.67379131  1.0
  O  O12389  1  0.07060946  0.85154546  0.67379131  1.0
  O  O12390  1  0.15394279  0.01821213  0.67379131  1.0
  O  O12391  1  0.15394279  0.18487880  0.67379131  1.0
  O  O12392  1  0.15394279  0.35154546  0.67379131  1.0
  O  O12393  1  0.15394279  0.51821213  0.67379131  1.0
  O  O12394  1  0.15394279  0.68487880  0.67379131  1.0
  O  O12395  1  0.15394279  0.85154546  0.67379131  1.0
  O  O12396  1  0.23727612  0.01821213  0.67379131  1.0
  O  O12397  1  0.23727612  0.18487880  0.67379131  1.0
  O  O12398  1  0.23727612  0.35154546  0.67379131  1.0
  O  O12399  1  0.23727612  0.51821213  0.67379131  1.0
  O  O12400  1  0.23727612  0.68487880  0.67379131  1.0
  O  O12401  1  0.23727612  0.85154546  0.67379131  1.0
  O  O12402  1  0.32060946  0.01821213  0.67379131  1.0
  O  O12403  1  0.32060946  0.18487880  0.67379131  1.0
  O  O12404  1  0.32060946  0.35154546  0.67379131  1.0
  O  O12405  1  0.32060946  0.51821213  0.67379131  1.0
  O  O12406  1  0.32060946  0.68487880  0.67379131  1.0
  O  O12407  1  0.32060946  0.85154546  0.67379131  1.0
  O  O12408  1  0.40394279  0.01821213  0.67379131  1.0
  O  O12409  1  0.40394279  0.18487880  0.67379131  1.0
  O  O12410  1  0.40394279  0.35154546  0.67379131  1.0
  O  O12411  1  0.40394279  0.51821213  0.67379131  1.0
  O  O12412  1  0.40394279  0.68487880  0.67379131  1.0
  O  O12413  1  0.40394279  0.85154546  0.67379131  1.0
  O  O12414  1  0.48727612  0.01821213  0.67379131  1.0
  O  O12415  1  0.48727612  0.18487880  0.67379131  1.0
  O  O12416  1  0.48727612  0.35154546  0.67379131  1.0
  O  O12417  1  0.48727612  0.51821213  0.67379131  1.0
  O  O12418  1  0.48727612  0.68487880  0.67379131  1.0
  O  O12419  1  0.48727612  0.85154546  0.67379131  1.0
  O  O12420  1  0.57060946  0.01821213  0.67379131  1.0
  O  O12421  1  0.57060946  0.18487880  0.67379131  1.0
  O  O12422  1  0.57060946  0.35154546  0.67379131  1.0
  O  O12423  1  0.57060946  0.51821213  0.67379131  1.0
  O  O12424  1  0.57060946  0.68487880  0.67379131  1.0
  O  O12425  1  0.57060946  0.85154546  0.67379131  1.0
  O  O12426  1  0.65394279  0.01821213  0.67379131  1.0
  O  O12427  1  0.65394279  0.18487880  0.67379131  1.0
  O  O12428  1  0.65394279  0.35154546  0.67379131  1.0
  O  O12429  1  0.65394279  0.51821213  0.67379131  1.0
  O  O12430  1  0.65394279  0.68487880  0.67379131  1.0
  O  O12431  1  0.65394279  0.85154546  0.67379131  1.0
  O  O12432  1  0.73727612  0.01821213  0.67379131  1.0
  O  O12433  1  0.73727612  0.18487880  0.67379131  1.0
  O  O12434  1  0.73727612  0.35154546  0.67379131  1.0
  O  O12435  1  0.73727612  0.51821213  0.67379131  1.0
  O  O12436  1  0.73727612  0.68487880  0.67379131  1.0
  O  O12437  1  0.73727612  0.85154546  0.67379131  1.0
  O  O12438  1  0.82060946  0.01821213  0.67379131  1.0
  O  O12439  1  0.82060946  0.18487880  0.67379131  1.0
  O  O12440  1  0.82060946  0.35154546  0.67379131  1.0
  O  O12441  1  0.82060946  0.51821213  0.67379131  1.0
  O  O12442  1  0.82060946  0.68487880  0.67379131  1.0
  O  O12443  1  0.82060946  0.85154546  0.67379131  1.0
  O  O12444  1  0.90394279  0.01821213  0.67379131  1.0
  O  O12445  1  0.90394279  0.18487880  0.67379131  1.0
  O  O12446  1  0.90394279  0.35154546  0.67379131  1.0
  O  O12447  1  0.90394279  0.51821213  0.67379131  1.0
  O  O12448  1  0.90394279  0.68487880  0.67379131  1.0
  O  O12449  1  0.90394279  0.85154546  0.67379131  1.0
  O  O12450  1  0.98727612  0.01821213  0.67379131  1.0
  O  O12451  1  0.98727612  0.18487880  0.67379131  1.0
  O  O12452  1  0.98727612  0.35154546  0.67379131  1.0
  O  O12453  1  0.98727612  0.51821213  0.67379131  1.0
  O  O12454  1  0.98727612  0.68487880  0.67379131  1.0
  O  O12455  1  0.98727612  0.85154546  0.67379131  1.0
  O  O12456  1  0.01531382  0.01267885  0.70961295  1.0
  O  O12457  1  0.01531382  0.17934552  0.70961295  1.0
  O  O12458  1  0.01531382  0.34601218  0.70961295  1.0
  O  O12459  1  0.01531382  0.51267885  0.70961295  1.0
  O  O12460  1  0.01531382  0.67934552  0.70961295  1.0
  O  O12461  1  0.01531382  0.84601218  0.70961295  1.0
  O  O12462  1  0.09864716  0.01267885  0.70961295  1.0
  O  O12463  1  0.09864716  0.17934552  0.70961295  1.0
  O  O12464  1  0.09864716  0.34601218  0.70961295  1.0
  O  O12465  1  0.09864716  0.51267885  0.70961295  1.0
  O  O12466  1  0.09864716  0.67934552  0.70961295  1.0
  O  O12467  1  0.09864716  0.84601218  0.70961295  1.0
  O  O12468  1  0.18198049  0.01267885  0.70961295  1.0
  O  O12469  1  0.18198049  0.17934552  0.70961295  1.0
  O  O12470  1  0.18198049  0.34601218  0.70961295  1.0
  O  O12471  1  0.18198049  0.51267885  0.70961295  1.0
  O  O12472  1  0.18198049  0.67934552  0.70961295  1.0
  O  O12473  1  0.18198049  0.84601218  0.70961295  1.0
  O  O12474  1  0.26531382  0.01267885  0.70961295  1.0
  O  O12475  1  0.26531382  0.17934552  0.70961295  1.0
  O  O12476  1  0.26531382  0.34601218  0.70961295  1.0
  O  O12477  1  0.26531382  0.51267885  0.70961295  1.0
  O  O12478  1  0.26531382  0.67934552  0.70961295  1.0
  O  O12479  1  0.26531382  0.84601218  0.70961295  1.0
  O  O12480  1  0.34864716  0.01267885  0.70961295  1.0
  O  O12481  1  0.34864716  0.17934552  0.70961295  1.0
  O  O12482  1  0.34864716  0.34601218  0.70961295  1.0
  O  O12483  1  0.34864716  0.51267885  0.70961295  1.0
  O  O12484  1  0.34864716  0.67934552  0.70961295  1.0
  O  O12485  1  0.34864716  0.84601218  0.70961295  1.0
  O  O12486  1  0.43198049  0.01267885  0.70961295  1.0
  O  O12487  1  0.43198049  0.17934552  0.70961295  1.0
  O  O12488  1  0.43198049  0.34601218  0.70961295  1.0
  O  O12489  1  0.43198049  0.51267885  0.70961295  1.0
  O  O12490  1  0.43198049  0.67934552  0.70961295  1.0
  O  O12491  1  0.43198049  0.84601218  0.70961295  1.0
  O  O12492  1  0.51531382  0.01267885  0.70961295  1.0
  O  O12493  1  0.51531382  0.17934552  0.70961295  1.0
  O  O12494  1  0.51531382  0.34601218  0.70961295  1.0
  O  O12495  1  0.51531382  0.51267885  0.70961295  1.0
  O  O12496  1  0.51531382  0.67934552  0.70961295  1.0
  O  O12497  1  0.51531382  0.84601218  0.70961295  1.0
  O  O12498  1  0.59864716  0.01267885  0.70961295  1.0
  O  O12499  1  0.59864716  0.17934552  0.70961295  1.0
  O  O12500  1  0.59864716  0.34601218  0.70961295  1.0
  O  O12501  1  0.59864716  0.51267885  0.70961295  1.0
  O  O12502  1  0.59864716  0.67934552  0.70961295  1.0
  O  O12503  1  0.59864716  0.84601218  0.70961295  1.0
  O  O12504  1  0.68198049  0.01267885  0.70961295  1.0
  O  O12505  1  0.68198049  0.17934552  0.70961295  1.0
  O  O12506  1  0.68198049  0.34601218  0.70961295  1.0
  O  O12507  1  0.68198049  0.51267885  0.70961295  1.0
  O  O12508  1  0.68198049  0.67934552  0.70961295  1.0
  O  O12509  1  0.68198049  0.84601218  0.70961295  1.0
  O  O12510  1  0.76531382  0.01267885  0.70961295  1.0
  O  O12511  1  0.76531382  0.17934552  0.70961295  1.0
  O  O12512  1  0.76531382  0.34601218  0.70961295  1.0
  O  O12513  1  0.76531382  0.51267885  0.70961295  1.0
  O  O12514  1  0.76531382  0.67934552  0.70961295  1.0
  O  O12515  1  0.76531382  0.84601218  0.70961295  1.0
  O  O12516  1  0.84864716  0.01267885  0.70961295  1.0
  O  O12517  1  0.84864716  0.17934552  0.70961295  1.0
  O  O12518  1  0.84864716  0.34601218  0.70961295  1.0
  O  O12519  1  0.84864716  0.51267885  0.70961295  1.0
  O  O12520  1  0.84864716  0.67934552  0.70961295  1.0
  O  O12521  1  0.84864716  0.84601218  0.70961295  1.0
  O  O12522  1  0.93198049  0.01267885  0.70961295  1.0
  O  O12523  1  0.93198049  0.17934552  0.70961295  1.0
  O  O12524  1  0.93198049  0.34601218  0.70961295  1.0
  O  O12525  1  0.93198049  0.51267885  0.70961295  1.0
  O  O12526  1  0.93198049  0.67934552  0.70961295  1.0
  O  O12527  1  0.93198049  0.84601218  0.70961295  1.0
  O  O12528  1  0.06725963  0.06415324  0.68216867  1.0
  O  O12529  1  0.06725963  0.23081991  0.68216867  1.0
  O  O12530  1  0.06725963  0.39748658  0.68216867  1.0
  O  O12531  1  0.06725963  0.56415324  0.68216867  1.0
  O  O12532  1  0.06725963  0.73081991  0.68216867  1.0
  O  O12533  1  0.06725963  0.89748658  0.68216867  1.0
  O  O12534  1  0.15059296  0.06415324  0.68216867  1.0
  O  O12535  1  0.15059296  0.23081991  0.68216867  1.0
  O  O12536  1  0.15059296  0.39748658  0.68216867  1.0
  O  O12537  1  0.15059296  0.56415324  0.68216867  1.0
  O  O12538  1  0.15059296  0.73081991  0.68216867  1.0
  O  O12539  1  0.15059296  0.89748658  0.68216867  1.0
  O  O12540  1  0.23392630  0.06415324  0.68216867  1.0
  O  O12541  1  0.23392630  0.23081991  0.68216867  1.0
  O  O12542  1  0.23392630  0.39748658  0.68216867  1.0
  O  O12543  1  0.23392630  0.56415324  0.68216867  1.0
  O  O12544  1  0.23392630  0.73081991  0.68216867  1.0
  O  O12545  1  0.23392630  0.89748658  0.68216867  1.0
  O  O12546  1  0.31725963  0.06415324  0.68216867  1.0
  O  O12547  1  0.31725963  0.23081991  0.68216867  1.0
  O  O12548  1  0.31725963  0.39748658  0.68216867  1.0
  O  O12549  1  0.31725963  0.56415324  0.68216867  1.0
  O  O12550  1  0.31725963  0.73081991  0.68216867  1.0
  O  O12551  1  0.31725963  0.89748658  0.68216867  1.0
  O  O12552  1  0.40059296  0.06415324  0.68216867  1.0
  O  O12553  1  0.40059296  0.23081991  0.68216867  1.0
  O  O12554  1  0.40059296  0.39748658  0.68216867  1.0
  O  O12555  1  0.40059296  0.56415324  0.68216867  1.0
  O  O12556  1  0.40059296  0.73081991  0.68216867  1.0
  O  O12557  1  0.40059296  0.89748658  0.68216867  1.0
  O  O12558  1  0.48392630  0.06415324  0.68216867  1.0
  O  O12559  1  0.48392630  0.23081991  0.68216867  1.0
  O  O12560  1  0.48392630  0.39748658  0.68216867  1.0
  O  O12561  1  0.48392630  0.56415324  0.68216867  1.0
  O  O12562  1  0.48392630  0.73081991  0.68216867  1.0
  O  O12563  1  0.48392630  0.89748658  0.68216867  1.0
  O  O12564  1  0.56725963  0.06415324  0.68216867  1.0
  O  O12565  1  0.56725963  0.23081991  0.68216867  1.0
  O  O12566  1  0.56725963  0.39748658  0.68216867  1.0
  O  O12567  1  0.56725963  0.56415324  0.68216867  1.0
  O  O12568  1  0.56725963  0.73081991  0.68216867  1.0
  O  O12569  1  0.56725963  0.89748658  0.68216867  1.0
  O  O12570  1  0.65059296  0.06415324  0.68216867  1.0
  O  O12571  1  0.65059296  0.23081991  0.68216867  1.0
  O  O12572  1  0.65059296  0.39748658  0.68216867  1.0
  O  O12573  1  0.65059296  0.56415324  0.68216867  1.0
  O  O12574  1  0.65059296  0.73081991  0.68216867  1.0
  O  O12575  1  0.65059296  0.89748658  0.68216867  1.0
  O  O12576  1  0.73392630  0.06415324  0.68216867  1.0
  O  O12577  1  0.73392630  0.23081991  0.68216867  1.0
  O  O12578  1  0.73392630  0.39748658  0.68216867  1.0
  O  O12579  1  0.73392630  0.56415324  0.68216867  1.0
  O  O12580  1  0.73392630  0.73081991  0.68216867  1.0
  O  O12581  1  0.73392630  0.89748658  0.68216867  1.0
  O  O12582  1  0.81725963  0.06415324  0.68216867  1.0
  O  O12583  1  0.81725963  0.23081991  0.68216867  1.0
  O  O12584  1  0.81725963  0.39748658  0.68216867  1.0
  O  O12585  1  0.81725963  0.56415324  0.68216867  1.0
  O  O12586  1  0.81725963  0.73081991  0.68216867  1.0
  O  O12587  1  0.81725963  0.89748658  0.68216867  1.0
  O  O12588  1  0.90059296  0.06415324  0.68216867  1.0
  O  O12589  1  0.90059296  0.23081991  0.68216867  1.0
  O  O12590  1  0.90059296  0.39748658  0.68216867  1.0
  O  O12591  1  0.90059296  0.56415324  0.68216867  1.0
  O  O12592  1  0.90059296  0.73081991  0.68216867  1.0
  O  O12593  1  0.90059296  0.89748658  0.68216867  1.0
  O  O12594  1  0.98392630  0.06415324  0.68216867  1.0
  O  O12595  1  0.98392630  0.23081991  0.68216867  1.0
  O  O12596  1  0.98392630  0.39748658  0.68216867  1.0
  O  O12597  1  0.98392630  0.56415324  0.68216867  1.0
  O  O12598  1  0.98392630  0.73081991  0.68216867  1.0
  O  O12599  1  0.98392630  0.89748658  0.68216867  1.0
  O  O12600  1  0.05758873  0.03492899  0.71299944  1.0
  O  O12601  1  0.05758873  0.20159566  0.71299944  1.0
  O  O12602  1  0.05758873  0.36826233  0.71299944  1.0
  O  O12603  1  0.05758873  0.53492899  0.71299944  1.0
  O  O12604  1  0.05758873  0.70159566  0.71299944  1.0
  O  O12605  1  0.05758873  0.86826233  0.71299944  1.0
  O  O12606  1  0.14092206  0.03492899  0.71299944  1.0
  O  O12607  1  0.14092206  0.20159566  0.71299944  1.0
  O  O12608  1  0.14092206  0.36826233  0.71299944  1.0
  O  O12609  1  0.14092206  0.53492899  0.71299944  1.0
  O  O12610  1  0.14092206  0.70159566  0.71299944  1.0
  O  O12611  1  0.14092206  0.86826233  0.71299944  1.0
  O  O12612  1  0.22425540  0.03492899  0.71299944  1.0
  O  O12613  1  0.22425540  0.20159566  0.71299944  1.0
  O  O12614  1  0.22425540  0.36826233  0.71299944  1.0
  O  O12615  1  0.22425540  0.53492899  0.71299944  1.0
  O  O12616  1  0.22425540  0.70159566  0.71299944  1.0
  O  O12617  1  0.22425540  0.86826233  0.71299944  1.0
  O  O12618  1  0.30758873  0.03492899  0.71299944  1.0
  O  O12619  1  0.30758873  0.20159566  0.71299944  1.0
  O  O12620  1  0.30758873  0.36826233  0.71299944  1.0
  O  O12621  1  0.30758873  0.53492899  0.71299944  1.0
  O  O12622  1  0.30758873  0.70159566  0.71299944  1.0
  O  O12623  1  0.30758873  0.86826233  0.71299944  1.0
  O  O12624  1  0.39092206  0.03492899  0.71299944  1.0
  O  O12625  1  0.39092206  0.20159566  0.71299944  1.0
  O  O12626  1  0.39092206  0.36826233  0.71299944  1.0
  O  O12627  1  0.39092206  0.53492899  0.71299944  1.0
  O  O12628  1  0.39092206  0.70159566  0.71299944  1.0
  O  O12629  1  0.39092206  0.86826233  0.71299944  1.0
  O  O12630  1  0.47425540  0.03492899  0.71299944  1.0
  O  O12631  1  0.47425540  0.20159566  0.71299944  1.0
  O  O12632  1  0.47425540  0.36826233  0.71299944  1.0
  O  O12633  1  0.47425540  0.53492899  0.71299944  1.0
  O  O12634  1  0.47425540  0.70159566  0.71299944  1.0
  O  O12635  1  0.47425540  0.86826233  0.71299944  1.0
  O  O12636  1  0.55758873  0.03492899  0.71299944  1.0
  O  O12637  1  0.55758873  0.20159566  0.71299944  1.0
  O  O12638  1  0.55758873  0.36826233  0.71299944  1.0
  O  O12639  1  0.55758873  0.53492899  0.71299944  1.0
  O  O12640  1  0.55758873  0.70159566  0.71299944  1.0
  O  O12641  1  0.55758873  0.86826233  0.71299944  1.0
  O  O12642  1  0.64092206  0.03492899  0.71299944  1.0
  O  O12643  1  0.64092206  0.20159566  0.71299944  1.0
  O  O12644  1  0.64092206  0.36826233  0.71299944  1.0
  O  O12645  1  0.64092206  0.53492899  0.71299944  1.0
  O  O12646  1  0.64092206  0.70159566  0.71299944  1.0
  O  O12647  1  0.64092206  0.86826233  0.71299944  1.0
  O  O12648  1  0.72425540  0.03492899  0.71299944  1.0
  O  O12649  1  0.72425540  0.20159566  0.71299944  1.0
  O  O12650  1  0.72425540  0.36826233  0.71299944  1.0
  O  O12651  1  0.72425540  0.53492899  0.71299944  1.0
  O  O12652  1  0.72425540  0.70159566  0.71299944  1.0
  O  O12653  1  0.72425540  0.86826233  0.71299944  1.0
  O  O12654  1  0.80758873  0.03492899  0.71299944  1.0
  O  O12655  1  0.80758873  0.20159566  0.71299944  1.0
  O  O12656  1  0.80758873  0.36826233  0.71299944  1.0
  O  O12657  1  0.80758873  0.53492899  0.71299944  1.0
  O  O12658  1  0.80758873  0.70159566  0.71299944  1.0
  O  O12659  1  0.80758873  0.86826233  0.71299944  1.0
  O  O12660  1  0.89092206  0.03492899  0.71299944  1.0
  O  O12661  1  0.89092206  0.20159566  0.71299944  1.0
  O  O12662  1  0.89092206  0.36826233  0.71299944  1.0
  O  O12663  1  0.89092206  0.53492899  0.71299944  1.0
  O  O12664  1  0.89092206  0.70159566  0.71299944  1.0
  O  O12665  1  0.89092206  0.86826233  0.71299944  1.0
  O  O12666  1  0.97425540  0.03492899  0.71299944  1.0
  O  O12667  1  0.97425540  0.20159566  0.71299944  1.0
  O  O12668  1  0.97425540  0.36826233  0.71299944  1.0
  O  O12669  1  0.97425540  0.53492899  0.71299944  1.0
  O  O12670  1  0.97425540  0.70159566  0.71299944  1.0
  O  O12671  1  0.97425540  0.86826233  0.71299944  1.0
