# generated using pymatgen
data_Ti42O53
_symmetry_space_group_name_H-M   'P 1'
_cell_length_a   61.34317272
_cell_length_b   63.78965197
_cell_length_c   65.33097425
_cell_angle_alpha   93.92424634
_cell_angle_beta   92.17127106
_cell_angle_gamma   85.06217195
_symmetry_Int_Tables_number   1
_chemical_formula_structural   Ti42O53
_chemical_formula_sum   'Ti6048 O7632'
_cell_volume   253966.37887248
_cell_formula_units_Z   144
loop_
 _symmetry_equiv_pos_site_id
 _symmetry_equiv_pos_as_xyz
  1  'x, y, z'
loop_
 _atom_site_type_symbol
 _atom_site_label
 _atom_site_symmetry_multiplicity
 _atom_site_fract_x
 _atom_site_fract_y
 _atom_site_fract_z
 _atom_site_occupancy
  Ti  Ti0  1  0.05566243  0.11446187  0.24430967  1.0
  Ti  Ti1  1  0.05566243  0.28112854  0.24430967  1.0
  Ti  Ti2  1  0.05566243  0.44779521  0.24430967  1.0
  Ti  Ti3  1  0.05566243  0.61446187  0.24430967  1.0
  Ti  Ti4  1  0.05566243  0.78112854  0.24430967  1.0
  Ti  Ti5  1  0.05566243  0.94779521  0.24430967  1.0
  Ti  Ti6  1  0.13899577  0.11446187  0.24430967  1.0
  Ti  Ti7  1  0.13899577  0.28112854  0.24430967  1.0
  Ti  Ti8  1  0.13899577  0.44779521  0.24430967  1.0
  Ti  Ti9  1  0.13899577  0.61446187  0.24430967  1.0
  Ti  Ti10  1  0.13899577  0.78112854  0.24430967  1.0
  Ti  Ti11  1  0.13899577  0.94779521  0.24430967  1.0
  Ti  Ti12  1  0.22232910  0.11446187  0.24430967  1.0
  Ti  Ti13  1  0.22232910  0.28112854  0.24430967  1.0
  Ti  Ti14  1  0.22232910  0.44779521  0.24430967  1.0
  Ti  Ti15  1  0.22232910  0.61446187  0.24430967  1.0
  Ti  Ti16  1  0.22232910  0.78112854  0.24430967  1.0
  Ti  Ti17  1  0.22232910  0.94779521  0.24430967  1.0
  Ti  Ti18  1  0.30566243  0.11446187  0.24430967  1.0
  Ti  Ti19  1  0.30566243  0.28112854  0.24430967  1.0
  Ti  Ti20  1  0.30566243  0.44779521  0.24430967  1.0
  Ti  Ti21  1  0.30566243  0.61446187  0.24430967  1.0
  Ti  Ti22  1  0.30566243  0.78112854  0.24430967  1.0
  Ti  Ti23  1  0.30566243  0.94779521  0.24430967  1.0
  Ti  Ti24  1  0.38899577  0.11446187  0.24430967  1.0
  Ti  Ti25  1  0.38899577  0.28112854  0.24430967  1.0
  Ti  Ti26  1  0.38899577  0.44779521  0.24430967  1.0
  Ti  Ti27  1  0.38899577  0.61446187  0.24430967  1.0
  Ti  Ti28  1  0.38899577  0.78112854  0.24430967  1.0
  Ti  Ti29  1  0.38899577  0.94779521  0.24430967  1.0
  Ti  Ti30  1  0.47232910  0.11446187  0.24430967  1.0
  Ti  Ti31  1  0.47232910  0.28112854  0.24430967  1.0
  Ti  Ti32  1  0.47232910  0.44779521  0.24430967  1.0
  Ti  Ti33  1  0.47232910  0.61446187  0.24430967  1.0
  Ti  Ti34  1  0.47232910  0.78112854  0.24430967  1.0
  Ti  Ti35  1  0.47232910  0.94779521  0.24430967  1.0
  Ti  Ti36  1  0.55566243  0.11446187  0.24430967  1.0
  Ti  Ti37  1  0.55566243  0.28112854  0.24430967  1.0
  Ti  Ti38  1  0.55566243  0.44779521  0.24430967  1.0
  Ti  Ti39  1  0.55566243  0.61446187  0.24430967  1.0
  Ti  Ti40  1  0.55566243  0.78112854  0.24430967  1.0
  Ti  Ti41  1  0.55566243  0.94779521  0.24430967  1.0
  Ti  Ti42  1  0.63899577  0.11446187  0.24430967  1.0
  Ti  Ti43  1  0.63899577  0.28112854  0.24430967  1.0
  Ti  Ti44  1  0.63899577  0.44779521  0.24430967  1.0
  Ti  Ti45  1  0.63899577  0.61446187  0.24430967  1.0
  Ti  Ti46  1  0.63899577  0.78112854  0.24430967  1.0
  Ti  Ti47  1  0.63899577  0.94779521  0.24430967  1.0
  Ti  Ti48  1  0.72232910  0.11446187  0.24430967  1.0
  Ti  Ti49  1  0.72232910  0.28112854  0.24430967  1.0
  Ti  Ti50  1  0.72232910  0.44779521  0.24430967  1.0
  Ti  Ti51  1  0.72232910  0.61446187  0.24430967  1.0
  Ti  Ti52  1  0.72232910  0.78112854  0.24430967  1.0
  Ti  Ti53  1  0.72232910  0.94779521  0.24430967  1.0
  Ti  Ti54  1  0.80566243  0.11446187  0.24430967  1.0
  Ti  Ti55  1  0.80566243  0.28112854  0.24430967  1.0
  Ti  Ti56  1  0.80566243  0.44779521  0.24430967  1.0
  Ti  Ti57  1  0.80566243  0.61446187  0.24430967  1.0
  Ti  Ti58  1  0.80566243  0.78112854  0.24430967  1.0
  Ti  Ti59  1  0.80566243  0.94779521  0.24430967  1.0
  Ti  Ti60  1  0.88899577  0.11446187  0.24430967  1.0
  Ti  Ti61  1  0.88899577  0.28112854  0.24430967  1.0
  Ti  Ti62  1  0.88899577  0.44779521  0.24430967  1.0
  Ti  Ti63  1  0.88899577  0.61446187  0.24430967  1.0
  Ti  Ti64  1  0.88899577  0.78112854  0.24430967  1.0
  Ti  Ti65  1  0.88899577  0.94779521  0.24430967  1.0
  Ti  Ti66  1  0.97232910  0.11446187  0.24430967  1.0
  Ti  Ti67  1  0.97232910  0.28112854  0.24430967  1.0
  Ti  Ti68  1  0.97232910  0.44779521  0.24430967  1.0
  Ti  Ti69  1  0.97232910  0.61446187  0.24430967  1.0
  Ti  Ti70  1  0.97232910  0.78112854  0.24430967  1.0
  Ti  Ti71  1  0.97232910  0.94779521  0.24430967  1.0
  Ti  Ti72  1  0.03185291  0.10255711  0.31573825  1.0
  Ti  Ti73  1  0.03185291  0.26922378  0.31573825  1.0
  Ti  Ti74  1  0.03185291  0.43589044  0.31573825  1.0
  Ti  Ti75  1  0.03185291  0.60255711  0.31573825  1.0
  Ti  Ti76  1  0.03185291  0.76922378  0.31573825  1.0
  Ti  Ti77  1  0.03185291  0.93589044  0.31573825  1.0
  Ti  Ti78  1  0.11518624  0.10255711  0.31573825  1.0
  Ti  Ti79  1  0.11518624  0.26922378  0.31573825  1.0
  Ti  Ti80  1  0.11518624  0.43589044  0.31573825  1.0
  Ti  Ti81  1  0.11518624  0.60255711  0.31573825  1.0
  Ti  Ti82  1  0.11518624  0.76922378  0.31573825  1.0
  Ti  Ti83  1  0.11518624  0.93589044  0.31573825  1.0
  Ti  Ti84  1  0.19851958  0.10255711  0.31573825  1.0
  Ti  Ti85  1  0.19851958  0.26922378  0.31573825  1.0
  Ti  Ti86  1  0.19851958  0.43589044  0.31573825  1.0
  Ti  Ti87  1  0.19851958  0.60255711  0.31573825  1.0
  Ti  Ti88  1  0.19851958  0.76922378  0.31573825  1.0
  Ti  Ti89  1  0.19851958  0.93589044  0.31573825  1.0
  Ti  Ti90  1  0.28185291  0.10255711  0.31573825  1.0
  Ti  Ti91  1  0.28185291  0.26922378  0.31573825  1.0
  Ti  Ti92  1  0.28185291  0.43589044  0.31573825  1.0
  Ti  Ti93  1  0.28185291  0.60255711  0.31573825  1.0
  Ti  Ti94  1  0.28185291  0.76922378  0.31573825  1.0
  Ti  Ti95  1  0.28185291  0.93589044  0.31573825  1.0
  Ti  Ti96  1  0.36518624  0.10255711  0.31573825  1.0
  Ti  Ti97  1  0.36518624  0.26922378  0.31573825  1.0
  Ti  Ti98  1  0.36518624  0.43589044  0.31573825  1.0
  Ti  Ti99  1  0.36518624  0.60255711  0.31573825  1.0
  Ti  Ti100  1  0.36518624  0.76922378  0.31573825  1.0
  Ti  Ti101  1  0.36518624  0.93589044  0.31573825  1.0
  Ti  Ti102  1  0.44851958  0.10255711  0.31573825  1.0
  Ti  Ti103  1  0.44851958  0.26922378  0.31573825  1.0
  Ti  Ti104  1  0.44851958  0.43589044  0.31573825  1.0
  Ti  Ti105  1  0.44851958  0.60255711  0.31573825  1.0
  Ti  Ti106  1  0.44851958  0.76922378  0.31573825  1.0
  Ti  Ti107  1  0.44851958  0.93589044  0.31573825  1.0
  Ti  Ti108  1  0.53185291  0.10255711  0.31573825  1.0
  Ti  Ti109  1  0.53185291  0.26922378  0.31573825  1.0
  Ti  Ti110  1  0.53185291  0.43589044  0.31573825  1.0
  Ti  Ti111  1  0.53185291  0.60255711  0.31573825  1.0
  Ti  Ti112  1  0.53185291  0.76922378  0.31573825  1.0
  Ti  Ti113  1  0.53185291  0.93589044  0.31573825  1.0
  Ti  Ti114  1  0.61518624  0.10255711  0.31573825  1.0
  Ti  Ti115  1  0.61518624  0.26922378  0.31573825  1.0
  Ti  Ti116  1  0.61518624  0.43589044  0.31573825  1.0
  Ti  Ti117  1  0.61518624  0.60255711  0.31573825  1.0
  Ti  Ti118  1  0.61518624  0.76922378  0.31573825  1.0
  Ti  Ti119  1  0.61518624  0.93589044  0.31573825  1.0
  Ti  Ti120  1  0.69851958  0.10255711  0.31573825  1.0
  Ti  Ti121  1  0.69851958  0.26922378  0.31573825  1.0
  Ti  Ti122  1  0.69851958  0.43589044  0.31573825  1.0
  Ti  Ti123  1  0.69851958  0.60255711  0.31573825  1.0
  Ti  Ti124  1  0.69851958  0.76922378  0.31573825  1.0
  Ti  Ti125  1  0.69851958  0.93589044  0.31573825  1.0
  Ti  Ti126  1  0.78185291  0.10255711  0.31573825  1.0
  Ti  Ti127  1  0.78185291  0.26922378  0.31573825  1.0
  Ti  Ti128  1  0.78185291  0.43589044  0.31573825  1.0
  Ti  Ti129  1  0.78185291  0.60255711  0.31573825  1.0
  Ti  Ti130  1  0.78185291  0.76922378  0.31573825  1.0
  Ti  Ti131  1  0.78185291  0.93589044  0.31573825  1.0
  Ti  Ti132  1  0.86518624  0.10255711  0.31573825  1.0
  Ti  Ti133  1  0.86518624  0.26922378  0.31573825  1.0
  Ti  Ti134  1  0.86518624  0.43589044  0.31573825  1.0
  Ti  Ti135  1  0.86518624  0.60255711  0.31573825  1.0
  Ti  Ti136  1  0.86518624  0.76922378  0.31573825  1.0
  Ti  Ti137  1  0.86518624  0.93589044  0.31573825  1.0
  Ti  Ti138  1  0.94851958  0.10255711  0.31573825  1.0
  Ti  Ti139  1  0.94851958  0.26922378  0.31573825  1.0
  Ti  Ti140  1  0.94851958  0.43589044  0.31573825  1.0
  Ti  Ti141  1  0.94851958  0.60255711  0.31573825  1.0
  Ti  Ti142  1  0.94851958  0.76922378  0.31573825  1.0
  Ti  Ti143  1  0.94851958  0.93589044  0.31573825  1.0
  Ti  Ti144  1  0.03710255  0.00983797  0.29419319  1.0
  Ti  Ti145  1  0.03710255  0.17650464  0.29419319  1.0
  Ti  Ti146  1  0.03710255  0.34317131  0.29419319  1.0
  Ti  Ti147  1  0.03710255  0.50983797  0.29419319  1.0
  Ti  Ti148  1  0.03710255  0.67650464  0.29419319  1.0
  Ti  Ti149  1  0.03710255  0.84317131  0.29419319  1.0
  Ti  Ti150  1  0.12043588  0.00983797  0.29419319  1.0
  Ti  Ti151  1  0.12043588  0.17650464  0.29419319  1.0
  Ti  Ti152  1  0.12043588  0.34317131  0.29419319  1.0
  Ti  Ti153  1  0.12043588  0.50983797  0.29419319  1.0
  Ti  Ti154  1  0.12043588  0.67650464  0.29419319  1.0
  Ti  Ti155  1  0.12043588  0.84317131  0.29419319  1.0
  Ti  Ti156  1  0.20376922  0.00983797  0.29419319  1.0
  Ti  Ti157  1  0.20376922  0.17650464  0.29419319  1.0
  Ti  Ti158  1  0.20376922  0.34317131  0.29419319  1.0
  Ti  Ti159  1  0.20376922  0.50983797  0.29419319  1.0
  Ti  Ti160  1  0.20376922  0.67650464  0.29419319  1.0
  Ti  Ti161  1  0.20376922  0.84317131  0.29419319  1.0
  Ti  Ti162  1  0.28710255  0.00983797  0.29419319  1.0
  Ti  Ti163  1  0.28710255  0.17650464  0.29419319  1.0
  Ti  Ti164  1  0.28710255  0.34317131  0.29419319  1.0
  Ti  Ti165  1  0.28710255  0.50983797  0.29419319  1.0
  Ti  Ti166  1  0.28710255  0.67650464  0.29419319  1.0
  Ti  Ti167  1  0.28710255  0.84317131  0.29419319  1.0
  Ti  Ti168  1  0.37043588  0.00983797  0.29419319  1.0
  Ti  Ti169  1  0.37043588  0.17650464  0.29419319  1.0
  Ti  Ti170  1  0.37043588  0.34317131  0.29419319  1.0
  Ti  Ti171  1  0.37043588  0.50983797  0.29419319  1.0
  Ti  Ti172  1  0.37043588  0.67650464  0.29419319  1.0
  Ti  Ti173  1  0.37043588  0.84317131  0.29419319  1.0
  Ti  Ti174  1  0.45376922  0.00983797  0.29419319  1.0
  Ti  Ti175  1  0.45376922  0.17650464  0.29419319  1.0
  Ti  Ti176  1  0.45376922  0.34317131  0.29419319  1.0
  Ti  Ti177  1  0.45376922  0.50983797  0.29419319  1.0
  Ti  Ti178  1  0.45376922  0.67650464  0.29419319  1.0
  Ti  Ti179  1  0.45376922  0.84317131  0.29419319  1.0
  Ti  Ti180  1  0.53710255  0.00983797  0.29419319  1.0
  Ti  Ti181  1  0.53710255  0.17650464  0.29419319  1.0
  Ti  Ti182  1  0.53710255  0.34317131  0.29419319  1.0
  Ti  Ti183  1  0.53710255  0.50983797  0.29419319  1.0
  Ti  Ti184  1  0.53710255  0.67650464  0.29419319  1.0
  Ti  Ti185  1  0.53710255  0.84317131  0.29419319  1.0
  Ti  Ti186  1  0.62043588  0.00983797  0.29419319  1.0
  Ti  Ti187  1  0.62043588  0.17650464  0.29419319  1.0
  Ti  Ti188  1  0.62043588  0.34317131  0.29419319  1.0
  Ti  Ti189  1  0.62043588  0.50983797  0.29419319  1.0
  Ti  Ti190  1  0.62043588  0.67650464  0.29419319  1.0
  Ti  Ti191  1  0.62043588  0.84317131  0.29419319  1.0
  Ti  Ti192  1  0.70376922  0.00983797  0.29419319  1.0
  Ti  Ti193  1  0.70376922  0.17650464  0.29419319  1.0
  Ti  Ti194  1  0.70376922  0.34317131  0.29419319  1.0
  Ti  Ti195  1  0.70376922  0.50983797  0.29419319  1.0
  Ti  Ti196  1  0.70376922  0.67650464  0.29419319  1.0
  Ti  Ti197  1  0.70376922  0.84317131  0.29419319  1.0
  Ti  Ti198  1  0.78710255  0.00983797  0.29419319  1.0
  Ti  Ti199  1  0.78710255  0.17650464  0.29419319  1.0
  Ti  Ti200  1  0.78710255  0.34317131  0.29419319  1.0
  Ti  Ti201  1  0.78710255  0.50983797  0.29419319  1.0
  Ti  Ti202  1  0.78710255  0.67650464  0.29419319  1.0
  Ti  Ti203  1  0.78710255  0.84317131  0.29419319  1.0
  Ti  Ti204  1  0.87043588  0.00983797  0.29419319  1.0
  Ti  Ti205  1  0.87043588  0.17650464  0.29419319  1.0
  Ti  Ti206  1  0.87043588  0.34317131  0.29419319  1.0
  Ti  Ti207  1  0.87043588  0.50983797  0.29419319  1.0
  Ti  Ti208  1  0.87043588  0.67650464  0.29419319  1.0
  Ti  Ti209  1  0.87043588  0.84317131  0.29419319  1.0
  Ti  Ti210  1  0.95376922  0.00983797  0.29419319  1.0
  Ti  Ti211  1  0.95376922  0.17650464  0.29419319  1.0
  Ti  Ti212  1  0.95376922  0.34317131  0.29419319  1.0
  Ti  Ti213  1  0.95376922  0.50983797  0.29419319  1.0
  Ti  Ti214  1  0.95376922  0.67650464  0.29419319  1.0
  Ti  Ti215  1  0.95376922  0.84317131  0.29419319  1.0
  Ti  Ti216  1  0.03629476  0.05631124  0.30459140  1.0
  Ti  Ti217  1  0.03629476  0.22297790  0.30459140  1.0
  Ti  Ti218  1  0.03629476  0.38964457  0.30459140  1.0
  Ti  Ti219  1  0.03629476  0.55631124  0.30459140  1.0
  Ti  Ti220  1  0.03629476  0.72297790  0.30459140  1.0
  Ti  Ti221  1  0.03629476  0.88964457  0.30459140  1.0
  Ti  Ti222  1  0.11962809  0.05631124  0.30459140  1.0
  Ti  Ti223  1  0.11962809  0.22297790  0.30459140  1.0
  Ti  Ti224  1  0.11962809  0.38964457  0.30459140  1.0
  Ti  Ti225  1  0.11962809  0.55631124  0.30459140  1.0
  Ti  Ti226  1  0.11962809  0.72297790  0.30459140  1.0
  Ti  Ti227  1  0.11962809  0.88964457  0.30459140  1.0
  Ti  Ti228  1  0.20296143  0.05631124  0.30459140  1.0
  Ti  Ti229  1  0.20296143  0.22297790  0.30459140  1.0
  Ti  Ti230  1  0.20296143  0.38964457  0.30459140  1.0
  Ti  Ti231  1  0.20296143  0.55631124  0.30459140  1.0
  Ti  Ti232  1  0.20296143  0.72297790  0.30459140  1.0
  Ti  Ti233  1  0.20296143  0.88964457  0.30459140  1.0
  Ti  Ti234  1  0.28629476  0.05631124  0.30459140  1.0
  Ti  Ti235  1  0.28629476  0.22297790  0.30459140  1.0
  Ti  Ti236  1  0.28629476  0.38964457  0.30459140  1.0
  Ti  Ti237  1  0.28629476  0.55631124  0.30459140  1.0
  Ti  Ti238  1  0.28629476  0.72297790  0.30459140  1.0
  Ti  Ti239  1  0.28629476  0.88964457  0.30459140  1.0
  Ti  Ti240  1  0.36962809  0.05631124  0.30459140  1.0
  Ti  Ti241  1  0.36962809  0.22297790  0.30459140  1.0
  Ti  Ti242  1  0.36962809  0.38964457  0.30459140  1.0
  Ti  Ti243  1  0.36962809  0.55631124  0.30459140  1.0
  Ti  Ti244  1  0.36962809  0.72297790  0.30459140  1.0
  Ti  Ti245  1  0.36962809  0.88964457  0.30459140  1.0
  Ti  Ti246  1  0.45296143  0.05631124  0.30459140  1.0
  Ti  Ti247  1  0.45296143  0.22297790  0.30459140  1.0
  Ti  Ti248  1  0.45296143  0.38964457  0.30459140  1.0
  Ti  Ti249  1  0.45296143  0.55631124  0.30459140  1.0
  Ti  Ti250  1  0.45296143  0.72297790  0.30459140  1.0
  Ti  Ti251  1  0.45296143  0.88964457  0.30459140  1.0
  Ti  Ti252  1  0.53629476  0.05631124  0.30459140  1.0
  Ti  Ti253  1  0.53629476  0.22297790  0.30459140  1.0
  Ti  Ti254  1  0.53629476  0.38964457  0.30459140  1.0
  Ti  Ti255  1  0.53629476  0.55631124  0.30459140  1.0
  Ti  Ti256  1  0.53629476  0.72297790  0.30459140  1.0
  Ti  Ti257  1  0.53629476  0.88964457  0.30459140  1.0
  Ti  Ti258  1  0.61962809  0.05631124  0.30459140  1.0
  Ti  Ti259  1  0.61962809  0.22297790  0.30459140  1.0
  Ti  Ti260  1  0.61962809  0.38964457  0.30459140  1.0
  Ti  Ti261  1  0.61962809  0.55631124  0.30459140  1.0
  Ti  Ti262  1  0.61962809  0.72297790  0.30459140  1.0
  Ti  Ti263  1  0.61962809  0.88964457  0.30459140  1.0
  Ti  Ti264  1  0.70296143  0.05631124  0.30459140  1.0
  Ti  Ti265  1  0.70296143  0.22297790  0.30459140  1.0
  Ti  Ti266  1  0.70296143  0.38964457  0.30459140  1.0
  Ti  Ti267  1  0.70296143  0.55631124  0.30459140  1.0
  Ti  Ti268  1  0.70296143  0.72297790  0.30459140  1.0
  Ti  Ti269  1  0.70296143  0.88964457  0.30459140  1.0
  Ti  Ti270  1  0.78629476  0.05631124  0.30459140  1.0
  Ti  Ti271  1  0.78629476  0.22297790  0.30459140  1.0
  Ti  Ti272  1  0.78629476  0.38964457  0.30459140  1.0
  Ti  Ti273  1  0.78629476  0.55631124  0.30459140  1.0
  Ti  Ti274  1  0.78629476  0.72297790  0.30459140  1.0
  Ti  Ti275  1  0.78629476  0.88964457  0.30459140  1.0
  Ti  Ti276  1  0.86962809  0.05631124  0.30459140  1.0
  Ti  Ti277  1  0.86962809  0.22297790  0.30459140  1.0
  Ti  Ti278  1  0.86962809  0.38964457  0.30459140  1.0
  Ti  Ti279  1  0.86962809  0.55631124  0.30459140  1.0
  Ti  Ti280  1  0.86962809  0.72297790  0.30459140  1.0
  Ti  Ti281  1  0.86962809  0.88964457  0.30459140  1.0
  Ti  Ti282  1  0.95296143  0.05631124  0.30459140  1.0
  Ti  Ti283  1  0.95296143  0.22297790  0.30459140  1.0
  Ti  Ti284  1  0.95296143  0.38964457  0.30459140  1.0
  Ti  Ti285  1  0.95296143  0.55631124  0.30459140  1.0
  Ti  Ti286  1  0.95296143  0.72297790  0.30459140  1.0
  Ti  Ti287  1  0.95296143  0.88964457  0.30459140  1.0
  Ti  Ti288  1  0.08310428  0.15667853  0.28859421  1.0
  Ti  Ti289  1  0.08310428  0.32334520  0.28859421  1.0
  Ti  Ti290  1  0.08310428  0.49001187  0.28859421  1.0
  Ti  Ti291  1  0.08310428  0.65667853  0.28859421  1.0
  Ti  Ti292  1  0.08310428  0.82334520  0.28859421  1.0
  Ti  Ti293  1  0.08310428  0.99001187  0.28859421  1.0
  Ti  Ti294  1  0.16643761  0.15667853  0.28859421  1.0
  Ti  Ti295  1  0.16643761  0.32334520  0.28859421  1.0
  Ti  Ti296  1  0.16643761  0.49001187  0.28859421  1.0
  Ti  Ti297  1  0.16643761  0.65667853  0.28859421  1.0
  Ti  Ti298  1  0.16643761  0.82334520  0.28859421  1.0
  Ti  Ti299  1  0.16643761  0.99001187  0.28859421  1.0
  Ti  Ti300  1  0.24977094  0.15667853  0.28859421  1.0
  Ti  Ti301  1  0.24977094  0.32334520  0.28859421  1.0
  Ti  Ti302  1  0.24977094  0.49001187  0.28859421  1.0
  Ti  Ti303  1  0.24977094  0.65667853  0.28859421  1.0
  Ti  Ti304  1  0.24977094  0.82334520  0.28859421  1.0
  Ti  Ti305  1  0.24977094  0.99001187  0.28859421  1.0
  Ti  Ti306  1  0.33310428  0.15667853  0.28859421  1.0
  Ti  Ti307  1  0.33310428  0.32334520  0.28859421  1.0
  Ti  Ti308  1  0.33310428  0.49001187  0.28859421  1.0
  Ti  Ti309  1  0.33310428  0.65667853  0.28859421  1.0
  Ti  Ti310  1  0.33310428  0.82334520  0.28859421  1.0
  Ti  Ti311  1  0.33310428  0.99001187  0.28859421  1.0
  Ti  Ti312  1  0.41643761  0.15667853  0.28859421  1.0
  Ti  Ti313  1  0.41643761  0.32334520  0.28859421  1.0
  Ti  Ti314  1  0.41643761  0.49001187  0.28859421  1.0
  Ti  Ti315  1  0.41643761  0.65667853  0.28859421  1.0
  Ti  Ti316  1  0.41643761  0.82334520  0.28859421  1.0
  Ti  Ti317  1  0.41643761  0.99001187  0.28859421  1.0
  Ti  Ti318  1  0.49977094  0.15667853  0.28859421  1.0
  Ti  Ti319  1  0.49977094  0.32334520  0.28859421  1.0
  Ti  Ti320  1  0.49977094  0.49001187  0.28859421  1.0
  Ti  Ti321  1  0.49977094  0.65667853  0.28859421  1.0
  Ti  Ti322  1  0.49977094  0.82334520  0.28859421  1.0
  Ti  Ti323  1  0.49977094  0.99001187  0.28859421  1.0
  Ti  Ti324  1  0.58310428  0.15667853  0.28859421  1.0
  Ti  Ti325  1  0.58310428  0.32334520  0.28859421  1.0
  Ti  Ti326  1  0.58310428  0.49001187  0.28859421  1.0
  Ti  Ti327  1  0.58310428  0.65667853  0.28859421  1.0
  Ti  Ti328  1  0.58310428  0.82334520  0.28859421  1.0
  Ti  Ti329  1  0.58310428  0.99001187  0.28859421  1.0
  Ti  Ti330  1  0.66643761  0.15667853  0.28859421  1.0
  Ti  Ti331  1  0.66643761  0.32334520  0.28859421  1.0
  Ti  Ti332  1  0.66643761  0.49001187  0.28859421  1.0
  Ti  Ti333  1  0.66643761  0.65667853  0.28859421  1.0
  Ti  Ti334  1  0.66643761  0.82334520  0.28859421  1.0
  Ti  Ti335  1  0.66643761  0.99001187  0.28859421  1.0
  Ti  Ti336  1  0.74977094  0.15667853  0.28859421  1.0
  Ti  Ti337  1  0.74977094  0.32334520  0.28859421  1.0
  Ti  Ti338  1  0.74977094  0.49001187  0.28859421  1.0
  Ti  Ti339  1  0.74977094  0.65667853  0.28859421  1.0
  Ti  Ti340  1  0.74977094  0.82334520  0.28859421  1.0
  Ti  Ti341  1  0.74977094  0.99001187  0.28859421  1.0
  Ti  Ti342  1  0.83310428  0.15667853  0.28859421  1.0
  Ti  Ti343  1  0.83310428  0.32334520  0.28859421  1.0
  Ti  Ti344  1  0.83310428  0.49001187  0.28859421  1.0
  Ti  Ti345  1  0.83310428  0.65667853  0.28859421  1.0
  Ti  Ti346  1  0.83310428  0.82334520  0.28859421  1.0
  Ti  Ti347  1  0.83310428  0.99001187  0.28859421  1.0
  Ti  Ti348  1  0.91643761  0.15667853  0.28859421  1.0
  Ti  Ti349  1  0.91643761  0.32334520  0.28859421  1.0
  Ti  Ti350  1  0.91643761  0.49001187  0.28859421  1.0
  Ti  Ti351  1  0.91643761  0.65667853  0.28859421  1.0
  Ti  Ti352  1  0.91643761  0.82334520  0.28859421  1.0
  Ti  Ti353  1  0.91643761  0.99001187  0.28859421  1.0
  Ti  Ti354  1  0.99977094  0.15667853  0.28859421  1.0
  Ti  Ti355  1  0.99977094  0.32334520  0.28859421  1.0
  Ti  Ti356  1  0.99977094  0.49001187  0.28859421  1.0
  Ti  Ti357  1  0.99977094  0.65667853  0.28859421  1.0
  Ti  Ti358  1  0.99977094  0.82334520  0.28859421  1.0
  Ti  Ti359  1  0.99977094  0.99001187  0.28859421  1.0
  Ti  Ti360  1  0.01199500  0.13805859  0.25003748  1.0
  Ti  Ti361  1  0.01199500  0.30472526  0.25003748  1.0
  Ti  Ti362  1  0.01199500  0.47139192  0.25003748  1.0
  Ti  Ti363  1  0.01199500  0.63805859  0.25003748  1.0
  Ti  Ti364  1  0.01199500  0.80472526  0.25003748  1.0
  Ti  Ti365  1  0.01199500  0.97139192  0.25003748  1.0
  Ti  Ti366  1  0.09532833  0.13805859  0.25003748  1.0
  Ti  Ti367  1  0.09532833  0.30472526  0.25003748  1.0
  Ti  Ti368  1  0.09532833  0.47139192  0.25003748  1.0
  Ti  Ti369  1  0.09532833  0.63805859  0.25003748  1.0
  Ti  Ti370  1  0.09532833  0.80472526  0.25003748  1.0
  Ti  Ti371  1  0.09532833  0.97139192  0.25003748  1.0
  Ti  Ti372  1  0.17866166  0.13805859  0.25003748  1.0
  Ti  Ti373  1  0.17866166  0.30472526  0.25003748  1.0
  Ti  Ti374  1  0.17866166  0.47139192  0.25003748  1.0
  Ti  Ti375  1  0.17866166  0.63805859  0.25003748  1.0
  Ti  Ti376  1  0.17866166  0.80472526  0.25003748  1.0
  Ti  Ti377  1  0.17866166  0.97139192  0.25003748  1.0
  Ti  Ti378  1  0.26199500  0.13805859  0.25003748  1.0
  Ti  Ti379  1  0.26199500  0.30472526  0.25003748  1.0
  Ti  Ti380  1  0.26199500  0.47139192  0.25003748  1.0
  Ti  Ti381  1  0.26199500  0.63805859  0.25003748  1.0
  Ti  Ti382  1  0.26199500  0.80472526  0.25003748  1.0
  Ti  Ti383  1  0.26199500  0.97139192  0.25003748  1.0
  Ti  Ti384  1  0.34532833  0.13805859  0.25003748  1.0
  Ti  Ti385  1  0.34532833  0.30472526  0.25003748  1.0
  Ti  Ti386  1  0.34532833  0.47139192  0.25003748  1.0
  Ti  Ti387  1  0.34532833  0.63805859  0.25003748  1.0
  Ti  Ti388  1  0.34532833  0.80472526  0.25003748  1.0
  Ti  Ti389  1  0.34532833  0.97139192  0.25003748  1.0
  Ti  Ti390  1  0.42866166  0.13805859  0.25003748  1.0
  Ti  Ti391  1  0.42866166  0.30472526  0.25003748  1.0
  Ti  Ti392  1  0.42866166  0.47139192  0.25003748  1.0
  Ti  Ti393  1  0.42866166  0.63805859  0.25003748  1.0
  Ti  Ti394  1  0.42866166  0.80472526  0.25003748  1.0
  Ti  Ti395  1  0.42866166  0.97139192  0.25003748  1.0
  Ti  Ti396  1  0.51199500  0.13805859  0.25003748  1.0
  Ti  Ti397  1  0.51199500  0.30472526  0.25003748  1.0
  Ti  Ti398  1  0.51199500  0.47139192  0.25003748  1.0
  Ti  Ti399  1  0.51199500  0.63805859  0.25003748  1.0
  Ti  Ti400  1  0.51199500  0.80472526  0.25003748  1.0
  Ti  Ti401  1  0.51199500  0.97139192  0.25003748  1.0
  Ti  Ti402  1  0.59532833  0.13805859  0.25003748  1.0
  Ti  Ti403  1  0.59532833  0.30472526  0.25003748  1.0
  Ti  Ti404  1  0.59532833  0.47139192  0.25003748  1.0
  Ti  Ti405  1  0.59532833  0.63805859  0.25003748  1.0
  Ti  Ti406  1  0.59532833  0.80472526  0.25003748  1.0
  Ti  Ti407  1  0.59532833  0.97139192  0.25003748  1.0
  Ti  Ti408  1  0.67866166  0.13805859  0.25003748  1.0
  Ti  Ti409  1  0.67866166  0.30472526  0.25003748  1.0
  Ti  Ti410  1  0.67866166  0.47139192  0.25003748  1.0
  Ti  Ti411  1  0.67866166  0.63805859  0.25003748  1.0
  Ti  Ti412  1  0.67866166  0.80472526  0.25003748  1.0
  Ti  Ti413  1  0.67866166  0.97139192  0.25003748  1.0
  Ti  Ti414  1  0.76199500  0.13805859  0.25003748  1.0
  Ti  Ti415  1  0.76199500  0.30472526  0.25003748  1.0
  Ti  Ti416  1  0.76199500  0.47139192  0.25003748  1.0
  Ti  Ti417  1  0.76199500  0.63805859  0.25003748  1.0
  Ti  Ti418  1  0.76199500  0.80472526  0.25003748  1.0
  Ti  Ti419  1  0.76199500  0.97139192  0.25003748  1.0
  Ti  Ti420  1  0.84532833  0.13805859  0.25003748  1.0
  Ti  Ti421  1  0.84532833  0.30472526  0.25003748  1.0
  Ti  Ti422  1  0.84532833  0.47139192  0.25003748  1.0
  Ti  Ti423  1  0.84532833  0.63805859  0.25003748  1.0
  Ti  Ti424  1  0.84532833  0.80472526  0.25003748  1.0
  Ti  Ti425  1  0.84532833  0.97139192  0.25003748  1.0
  Ti  Ti426  1  0.92866166  0.13805859  0.25003748  1.0
  Ti  Ti427  1  0.92866166  0.30472526  0.25003748  1.0
  Ti  Ti428  1  0.92866166  0.47139192  0.25003748  1.0
  Ti  Ti429  1  0.92866166  0.63805859  0.25003748  1.0
  Ti  Ti430  1  0.92866166  0.80472526  0.25003748  1.0
  Ti  Ti431  1  0.92866166  0.97139192  0.25003748  1.0
  Ti  Ti432  1  0.07151881  0.12615383  0.32146606  1.0
  Ti  Ti433  1  0.07151881  0.29282049  0.32146606  1.0
  Ti  Ti434  1  0.07151881  0.45948716  0.32146606  1.0
  Ti  Ti435  1  0.07151881  0.62615383  0.32146606  1.0
  Ti  Ti436  1  0.07151881  0.79282049  0.32146606  1.0
  Ti  Ti437  1  0.07151881  0.95948716  0.32146606  1.0
  Ti  Ti438  1  0.15485214  0.12615383  0.32146606  1.0
  Ti  Ti439  1  0.15485214  0.29282049  0.32146606  1.0
  Ti  Ti440  1  0.15485214  0.45948716  0.32146606  1.0
  Ti  Ti441  1  0.15485214  0.62615383  0.32146606  1.0
  Ti  Ti442  1  0.15485214  0.79282049  0.32146606  1.0
  Ti  Ti443  1  0.15485214  0.95948716  0.32146606  1.0
  Ti  Ti444  1  0.23818547  0.12615383  0.32146606  1.0
  Ti  Ti445  1  0.23818547  0.29282049  0.32146606  1.0
  Ti  Ti446  1  0.23818547  0.45948716  0.32146606  1.0
  Ti  Ti447  1  0.23818547  0.62615383  0.32146606  1.0
  Ti  Ti448  1  0.23818547  0.79282049  0.32146606  1.0
  Ti  Ti449  1  0.23818547  0.95948716  0.32146606  1.0
  Ti  Ti450  1  0.32151881  0.12615383  0.32146606  1.0
  Ti  Ti451  1  0.32151881  0.29282049  0.32146606  1.0
  Ti  Ti452  1  0.32151881  0.45948716  0.32146606  1.0
  Ti  Ti453  1  0.32151881  0.62615383  0.32146606  1.0
  Ti  Ti454  1  0.32151881  0.79282049  0.32146606  1.0
  Ti  Ti455  1  0.32151881  0.95948716  0.32146606  1.0
  Ti  Ti456  1  0.40485214  0.12615383  0.32146606  1.0
  Ti  Ti457  1  0.40485214  0.29282049  0.32146606  1.0
  Ti  Ti458  1  0.40485214  0.45948716  0.32146606  1.0
  Ti  Ti459  1  0.40485214  0.62615383  0.32146606  1.0
  Ti  Ti460  1  0.40485214  0.79282049  0.32146606  1.0
  Ti  Ti461  1  0.40485214  0.95948716  0.32146606  1.0
  Ti  Ti462  1  0.48818547  0.12615383  0.32146606  1.0
  Ti  Ti463  1  0.48818547  0.29282049  0.32146606  1.0
  Ti  Ti464  1  0.48818547  0.45948716  0.32146606  1.0
  Ti  Ti465  1  0.48818547  0.62615383  0.32146606  1.0
  Ti  Ti466  1  0.48818547  0.79282049  0.32146606  1.0
  Ti  Ti467  1  0.48818547  0.95948716  0.32146606  1.0
  Ti  Ti468  1  0.57151881  0.12615383  0.32146606  1.0
  Ti  Ti469  1  0.57151881  0.29282049  0.32146606  1.0
  Ti  Ti470  1  0.57151881  0.45948716  0.32146606  1.0
  Ti  Ti471  1  0.57151881  0.62615383  0.32146606  1.0
  Ti  Ti472  1  0.57151881  0.79282049  0.32146606  1.0
  Ti  Ti473  1  0.57151881  0.95948716  0.32146606  1.0
  Ti  Ti474  1  0.65485214  0.12615383  0.32146606  1.0
  Ti  Ti475  1  0.65485214  0.29282049  0.32146606  1.0
  Ti  Ti476  1  0.65485214  0.45948716  0.32146606  1.0
  Ti  Ti477  1  0.65485214  0.62615383  0.32146606  1.0
  Ti  Ti478  1  0.65485214  0.79282049  0.32146606  1.0
  Ti  Ti479  1  0.65485214  0.95948716  0.32146606  1.0
  Ti  Ti480  1  0.73818547  0.12615383  0.32146606  1.0
  Ti  Ti481  1  0.73818547  0.29282049  0.32146606  1.0
  Ti  Ti482  1  0.73818547  0.45948716  0.32146606  1.0
  Ti  Ti483  1  0.73818547  0.62615383  0.32146606  1.0
  Ti  Ti484  1  0.73818547  0.79282049  0.32146606  1.0
  Ti  Ti485  1  0.73818547  0.95948716  0.32146606  1.0
  Ti  Ti486  1  0.82151881  0.12615383  0.32146606  1.0
  Ti  Ti487  1  0.82151881  0.29282049  0.32146606  1.0
  Ti  Ti488  1  0.82151881  0.45948716  0.32146606  1.0
  Ti  Ti489  1  0.82151881  0.62615383  0.32146606  1.0
  Ti  Ti490  1  0.82151881  0.79282049  0.32146606  1.0
  Ti  Ti491  1  0.82151881  0.95948716  0.32146606  1.0
  Ti  Ti492  1  0.90485214  0.12615383  0.32146606  1.0
  Ti  Ti493  1  0.90485214  0.29282049  0.32146606  1.0
  Ti  Ti494  1  0.90485214  0.45948716  0.32146606  1.0
  Ti  Ti495  1  0.90485214  0.62615383  0.32146606  1.0
  Ti  Ti496  1  0.90485214  0.79282049  0.32146606  1.0
  Ti  Ti497  1  0.90485214  0.95948716  0.32146606  1.0
  Ti  Ti498  1  0.98818547  0.12615383  0.32146606  1.0
  Ti  Ti499  1  0.98818547  0.29282049  0.32146606  1.0
  Ti  Ti500  1  0.98818547  0.45948716  0.32146606  1.0
  Ti  Ti501  1  0.98818547  0.62615383  0.32146606  1.0
  Ti  Ti502  1  0.98818547  0.79282049  0.32146606  1.0
  Ti  Ti503  1  0.98818547  0.95948716  0.32146606  1.0
  Ti  Ti504  1  0.07361034  0.07613604  0.31020964  1.0
  Ti  Ti505  1  0.07361034  0.24280271  0.31020964  1.0
  Ti  Ti506  1  0.07361034  0.40946938  0.31020964  1.0
  Ti  Ti507  1  0.07361034  0.57613604  0.31020964  1.0
  Ti  Ti508  1  0.07361034  0.74280271  0.31020964  1.0
  Ti  Ti509  1  0.07361034  0.90946938  0.31020964  1.0
  Ti  Ti510  1  0.15694368  0.07613604  0.31020964  1.0
  Ti  Ti511  1  0.15694368  0.24280271  0.31020964  1.0
  Ti  Ti512  1  0.15694368  0.40946938  0.31020964  1.0
  Ti  Ti513  1  0.15694368  0.57613604  0.31020964  1.0
  Ti  Ti514  1  0.15694368  0.74280271  0.31020964  1.0
  Ti  Ti515  1  0.15694368  0.90946938  0.31020964  1.0
  Ti  Ti516  1  0.24027701  0.07613604  0.31020964  1.0
  Ti  Ti517  1  0.24027701  0.24280271  0.31020964  1.0
  Ti  Ti518  1  0.24027701  0.40946938  0.31020964  1.0
  Ti  Ti519  1  0.24027701  0.57613604  0.31020964  1.0
  Ti  Ti520  1  0.24027701  0.74280271  0.31020964  1.0
  Ti  Ti521  1  0.24027701  0.90946938  0.31020964  1.0
  Ti  Ti522  1  0.32361034  0.07613604  0.31020964  1.0
  Ti  Ti523  1  0.32361034  0.24280271  0.31020964  1.0
  Ti  Ti524  1  0.32361034  0.40946938  0.31020964  1.0
  Ti  Ti525  1  0.32361034  0.57613604  0.31020964  1.0
  Ti  Ti526  1  0.32361034  0.74280271  0.31020964  1.0
  Ti  Ti527  1  0.32361034  0.90946938  0.31020964  1.0
  Ti  Ti528  1  0.40694368  0.07613604  0.31020964  1.0
  Ti  Ti529  1  0.40694368  0.24280271  0.31020964  1.0
  Ti  Ti530  1  0.40694368  0.40946938  0.31020964  1.0
  Ti  Ti531  1  0.40694368  0.57613604  0.31020964  1.0
  Ti  Ti532  1  0.40694368  0.74280271  0.31020964  1.0
  Ti  Ti533  1  0.40694368  0.90946938  0.31020964  1.0
  Ti  Ti534  1  0.49027701  0.07613604  0.31020964  1.0
  Ti  Ti535  1  0.49027701  0.24280271  0.31020964  1.0
  Ti  Ti536  1  0.49027701  0.40946938  0.31020964  1.0
  Ti  Ti537  1  0.49027701  0.57613604  0.31020964  1.0
  Ti  Ti538  1  0.49027701  0.74280271  0.31020964  1.0
  Ti  Ti539  1  0.49027701  0.90946938  0.31020964  1.0
  Ti  Ti540  1  0.57361034  0.07613604  0.31020964  1.0
  Ti  Ti541  1  0.57361034  0.24280271  0.31020964  1.0
  Ti  Ti542  1  0.57361034  0.40946938  0.31020964  1.0
  Ti  Ti543  1  0.57361034  0.57613604  0.31020964  1.0
  Ti  Ti544  1  0.57361034  0.74280271  0.31020964  1.0
  Ti  Ti545  1  0.57361034  0.90946938  0.31020964  1.0
  Ti  Ti546  1  0.65694368  0.07613604  0.31020964  1.0
  Ti  Ti547  1  0.65694368  0.24280271  0.31020964  1.0
  Ti  Ti548  1  0.65694368  0.40946938  0.31020964  1.0
  Ti  Ti549  1  0.65694368  0.57613604  0.31020964  1.0
  Ti  Ti550  1  0.65694368  0.74280271  0.31020964  1.0
  Ti  Ti551  1  0.65694368  0.90946938  0.31020964  1.0
  Ti  Ti552  1  0.74027701  0.07613604  0.31020964  1.0
  Ti  Ti553  1  0.74027701  0.24280271  0.31020964  1.0
  Ti  Ti554  1  0.74027701  0.40946938  0.31020964  1.0
  Ti  Ti555  1  0.74027701  0.57613604  0.31020964  1.0
  Ti  Ti556  1  0.74027701  0.74280271  0.31020964  1.0
  Ti  Ti557  1  0.74027701  0.90946938  0.31020964  1.0
  Ti  Ti558  1  0.82361034  0.07613604  0.31020964  1.0
  Ti  Ti559  1  0.82361034  0.24280271  0.31020964  1.0
  Ti  Ti560  1  0.82361034  0.40946938  0.31020964  1.0
  Ti  Ti561  1  0.82361034  0.57613604  0.31020964  1.0
  Ti  Ti562  1  0.82361034  0.74280271  0.31020964  1.0
  Ti  Ti563  1  0.82361034  0.90946938  0.31020964  1.0
  Ti  Ti564  1  0.90694368  0.07613604  0.31020964  1.0
  Ti  Ti565  1  0.90694368  0.24280271  0.31020964  1.0
  Ti  Ti566  1  0.90694368  0.40946938  0.31020964  1.0
  Ti  Ti567  1  0.90694368  0.57613604  0.31020964  1.0
  Ti  Ti568  1  0.90694368  0.74280271  0.31020964  1.0
  Ti  Ti569  1  0.90694368  0.90946938  0.31020964  1.0
  Ti  Ti570  1  0.99027701  0.07613604  0.31020964  1.0
  Ti  Ti571  1  0.99027701  0.24280271  0.31020964  1.0
  Ti  Ti572  1  0.99027701  0.40946938  0.31020964  1.0
  Ti  Ti573  1  0.99027701  0.57613604  0.31020964  1.0
  Ti  Ti574  1  0.99027701  0.74280271  0.31020964  1.0
  Ti  Ti575  1  0.99027701  0.90946938  0.31020964  1.0
  Ti  Ti576  1  0.02477884  0.02709668  0.33509782  1.0
  Ti  Ti577  1  0.02477884  0.19376335  0.33509782  1.0
  Ti  Ti578  1  0.02477884  0.36043002  0.33509782  1.0
  Ti  Ti579  1  0.02477884  0.52709668  0.33509782  1.0
  Ti  Ti580  1  0.02477884  0.69376335  0.33509782  1.0
  Ti  Ti581  1  0.02477884  0.86043002  0.33509782  1.0
  Ti  Ti582  1  0.10811218  0.02709668  0.33509782  1.0
  Ti  Ti583  1  0.10811218  0.19376335  0.33509782  1.0
  Ti  Ti584  1  0.10811218  0.36043002  0.33509782  1.0
  Ti  Ti585  1  0.10811218  0.52709668  0.33509782  1.0
  Ti  Ti586  1  0.10811218  0.69376335  0.33509782  1.0
  Ti  Ti587  1  0.10811218  0.86043002  0.33509782  1.0
  Ti  Ti588  1  0.19144551  0.02709668  0.33509782  1.0
  Ti  Ti589  1  0.19144551  0.19376335  0.33509782  1.0
  Ti  Ti590  1  0.19144551  0.36043002  0.33509782  1.0
  Ti  Ti591  1  0.19144551  0.52709668  0.33509782  1.0
  Ti  Ti592  1  0.19144551  0.69376335  0.33509782  1.0
  Ti  Ti593  1  0.19144551  0.86043002  0.33509782  1.0
  Ti  Ti594  1  0.27477884  0.02709668  0.33509782  1.0
  Ti  Ti595  1  0.27477884  0.19376335  0.33509782  1.0
  Ti  Ti596  1  0.27477884  0.36043002  0.33509782  1.0
  Ti  Ti597  1  0.27477884  0.52709668  0.33509782  1.0
  Ti  Ti598  1  0.27477884  0.69376335  0.33509782  1.0
  Ti  Ti599  1  0.27477884  0.86043002  0.33509782  1.0
  Ti  Ti600  1  0.35811218  0.02709668  0.33509782  1.0
  Ti  Ti601  1  0.35811218  0.19376335  0.33509782  1.0
  Ti  Ti602  1  0.35811218  0.36043002  0.33509782  1.0
  Ti  Ti603  1  0.35811218  0.52709668  0.33509782  1.0
  Ti  Ti604  1  0.35811218  0.69376335  0.33509782  1.0
  Ti  Ti605  1  0.35811218  0.86043002  0.33509782  1.0
  Ti  Ti606  1  0.44144551  0.02709668  0.33509782  1.0
  Ti  Ti607  1  0.44144551  0.19376335  0.33509782  1.0
  Ti  Ti608  1  0.44144551  0.36043002  0.33509782  1.0
  Ti  Ti609  1  0.44144551  0.52709668  0.33509782  1.0
  Ti  Ti610  1  0.44144551  0.69376335  0.33509782  1.0
  Ti  Ti611  1  0.44144551  0.86043002  0.33509782  1.0
  Ti  Ti612  1  0.52477884  0.02709668  0.33509782  1.0
  Ti  Ti613  1  0.52477884  0.19376335  0.33509782  1.0
  Ti  Ti614  1  0.52477884  0.36043002  0.33509782  1.0
  Ti  Ti615  1  0.52477884  0.52709668  0.33509782  1.0
  Ti  Ti616  1  0.52477884  0.69376335  0.33509782  1.0
  Ti  Ti617  1  0.52477884  0.86043002  0.33509782  1.0
  Ti  Ti618  1  0.60811218  0.02709668  0.33509782  1.0
  Ti  Ti619  1  0.60811218  0.19376335  0.33509782  1.0
  Ti  Ti620  1  0.60811218  0.36043002  0.33509782  1.0
  Ti  Ti621  1  0.60811218  0.52709668  0.33509782  1.0
  Ti  Ti622  1  0.60811218  0.69376335  0.33509782  1.0
  Ti  Ti623  1  0.60811218  0.86043002  0.33509782  1.0
  Ti  Ti624  1  0.69144551  0.02709668  0.33509782  1.0
  Ti  Ti625  1  0.69144551  0.19376335  0.33509782  1.0
  Ti  Ti626  1  0.69144551  0.36043002  0.33509782  1.0
  Ti  Ti627  1  0.69144551  0.52709668  0.33509782  1.0
  Ti  Ti628  1  0.69144551  0.69376335  0.33509782  1.0
  Ti  Ti629  1  0.69144551  0.86043002  0.33509782  1.0
  Ti  Ti630  1  0.77477884  0.02709668  0.33509782  1.0
  Ti  Ti631  1  0.77477884  0.19376335  0.33509782  1.0
  Ti  Ti632  1  0.77477884  0.36043002  0.33509782  1.0
  Ti  Ti633  1  0.77477884  0.52709668  0.33509782  1.0
  Ti  Ti634  1  0.77477884  0.69376335  0.33509782  1.0
  Ti  Ti635  1  0.77477884  0.86043002  0.33509782  1.0
  Ti  Ti636  1  0.85811218  0.02709668  0.33509782  1.0
  Ti  Ti637  1  0.85811218  0.19376335  0.33509782  1.0
  Ti  Ti638  1  0.85811218  0.36043002  0.33509782  1.0
  Ti  Ti639  1  0.85811218  0.52709668  0.33509782  1.0
  Ti  Ti640  1  0.85811218  0.69376335  0.33509782  1.0
  Ti  Ti641  1  0.85811218  0.86043002  0.33509782  1.0
  Ti  Ti642  1  0.94144551  0.02709668  0.33509782  1.0
  Ti  Ti643  1  0.94144551  0.19376335  0.33509782  1.0
  Ti  Ti644  1  0.94144551  0.36043002  0.33509782  1.0
  Ti  Ti645  1  0.94144551  0.52709668  0.33509782  1.0
  Ti  Ti646  1  0.94144551  0.69376335  0.33509782  1.0
  Ti  Ti647  1  0.94144551  0.86043002  0.33509782  1.0
  Ti  Ti648  1  0.04858837  0.03900145  0.26366925  1.0
  Ti  Ti649  1  0.04858837  0.20566811  0.26366925  1.0
  Ti  Ti650  1  0.04858837  0.37233478  0.26366925  1.0
  Ti  Ti651  1  0.04858837  0.53900145  0.26366925  1.0
  Ti  Ti652  1  0.04858837  0.70566811  0.26366925  1.0
  Ti  Ti653  1  0.04858837  0.87233478  0.26366925  1.0
  Ti  Ti654  1  0.13192170  0.03900145  0.26366925  1.0
  Ti  Ti655  1  0.13192170  0.20566811  0.26366925  1.0
  Ti  Ti656  1  0.13192170  0.37233478  0.26366925  1.0
  Ti  Ti657  1  0.13192170  0.53900145  0.26366925  1.0
  Ti  Ti658  1  0.13192170  0.70566811  0.26366925  1.0
  Ti  Ti659  1  0.13192170  0.87233478  0.26366925  1.0
  Ti  Ti660  1  0.21525503  0.03900145  0.26366925  1.0
  Ti  Ti661  1  0.21525503  0.20566811  0.26366925  1.0
  Ti  Ti662  1  0.21525503  0.37233478  0.26366925  1.0
  Ti  Ti663  1  0.21525503  0.53900145  0.26366925  1.0
  Ti  Ti664  1  0.21525503  0.70566811  0.26366925  1.0
  Ti  Ti665  1  0.21525503  0.87233478  0.26366925  1.0
  Ti  Ti666  1  0.29858837  0.03900145  0.26366925  1.0
  Ti  Ti667  1  0.29858837  0.20566811  0.26366925  1.0
  Ti  Ti668  1  0.29858837  0.37233478  0.26366925  1.0
  Ti  Ti669  1  0.29858837  0.53900145  0.26366925  1.0
  Ti  Ti670  1  0.29858837  0.70566811  0.26366925  1.0
  Ti  Ti671  1  0.29858837  0.87233478  0.26366925  1.0
  Ti  Ti672  1  0.38192170  0.03900145  0.26366925  1.0
  Ti  Ti673  1  0.38192170  0.20566811  0.26366925  1.0
  Ti  Ti674  1  0.38192170  0.37233478  0.26366925  1.0
  Ti  Ti675  1  0.38192170  0.53900145  0.26366925  1.0
  Ti  Ti676  1  0.38192170  0.70566811  0.26366925  1.0
  Ti  Ti677  1  0.38192170  0.87233478  0.26366925  1.0
  Ti  Ti678  1  0.46525503  0.03900145  0.26366925  1.0
  Ti  Ti679  1  0.46525503  0.20566811  0.26366925  1.0
  Ti  Ti680  1  0.46525503  0.37233478  0.26366925  1.0
  Ti  Ti681  1  0.46525503  0.53900145  0.26366925  1.0
  Ti  Ti682  1  0.46525503  0.70566811  0.26366925  1.0
  Ti  Ti683  1  0.46525503  0.87233478  0.26366925  1.0
  Ti  Ti684  1  0.54858837  0.03900145  0.26366925  1.0
  Ti  Ti685  1  0.54858837  0.20566811  0.26366925  1.0
  Ti  Ti686  1  0.54858837  0.37233478  0.26366925  1.0
  Ti  Ti687  1  0.54858837  0.53900145  0.26366925  1.0
  Ti  Ti688  1  0.54858837  0.70566811  0.26366925  1.0
  Ti  Ti689  1  0.54858837  0.87233478  0.26366925  1.0
  Ti  Ti690  1  0.63192170  0.03900145  0.26366925  1.0
  Ti  Ti691  1  0.63192170  0.20566811  0.26366925  1.0
  Ti  Ti692  1  0.63192170  0.37233478  0.26366925  1.0
  Ti  Ti693  1  0.63192170  0.53900145  0.26366925  1.0
  Ti  Ti694  1  0.63192170  0.70566811  0.26366925  1.0
  Ti  Ti695  1  0.63192170  0.87233478  0.26366925  1.0
  Ti  Ti696  1  0.71525503  0.03900145  0.26366925  1.0
  Ti  Ti697  1  0.71525503  0.20566811  0.26366925  1.0
  Ti  Ti698  1  0.71525503  0.37233478  0.26366925  1.0
  Ti  Ti699  1  0.71525503  0.53900145  0.26366925  1.0
  Ti  Ti700  1  0.71525503  0.70566811  0.26366925  1.0
  Ti  Ti701  1  0.71525503  0.87233478  0.26366925  1.0
  Ti  Ti702  1  0.79858837  0.03900145  0.26366925  1.0
  Ti  Ti703  1  0.79858837  0.20566811  0.26366925  1.0
  Ti  Ti704  1  0.79858837  0.37233478  0.26366925  1.0
  Ti  Ti705  1  0.79858837  0.53900145  0.26366925  1.0
  Ti  Ti706  1  0.79858837  0.70566811  0.26366925  1.0
  Ti  Ti707  1  0.79858837  0.87233478  0.26366925  1.0
  Ti  Ti708  1  0.88192170  0.03900145  0.26366925  1.0
  Ti  Ti709  1  0.88192170  0.20566811  0.26366925  1.0
  Ti  Ti710  1  0.88192170  0.37233478  0.26366925  1.0
  Ti  Ti711  1  0.88192170  0.53900145  0.26366925  1.0
  Ti  Ti712  1  0.88192170  0.70566811  0.26366925  1.0
  Ti  Ti713  1  0.88192170  0.87233478  0.26366925  1.0
  Ti  Ti714  1  0.96525503  0.03900145  0.26366925  1.0
  Ti  Ti715  1  0.96525503  0.20566811  0.26366925  1.0
  Ti  Ti716  1  0.96525503  0.37233478  0.26366925  1.0
  Ti  Ti717  1  0.96525503  0.53900145  0.26366925  1.0
  Ti  Ti718  1  0.96525503  0.70566811  0.26366925  1.0
  Ti  Ti719  1  0.96525503  0.87233478  0.26366925  1.0
  Ti  Ti720  1  0.01778941  0.11834770  0.35449085  1.0
  Ti  Ti721  1  0.01778941  0.28501436  0.35449085  1.0
  Ti  Ti722  1  0.01778941  0.45168103  0.35449085  1.0
  Ti  Ti723  1  0.01778941  0.61834770  0.35449085  1.0
  Ti  Ti724  1  0.01778941  0.78501436  0.35449085  1.0
  Ti  Ti725  1  0.01778941  0.95168103  0.35449085  1.0
  Ti  Ti726  1  0.10112275  0.11834770  0.35449085  1.0
  Ti  Ti727  1  0.10112275  0.28501436  0.35449085  1.0
  Ti  Ti728  1  0.10112275  0.45168103  0.35449085  1.0
  Ti  Ti729  1  0.10112275  0.61834770  0.35449085  1.0
  Ti  Ti730  1  0.10112275  0.78501436  0.35449085  1.0
  Ti  Ti731  1  0.10112275  0.95168103  0.35449085  1.0
  Ti  Ti732  1  0.18445608  0.11834770  0.35449085  1.0
  Ti  Ti733  1  0.18445608  0.28501436  0.35449085  1.0
  Ti  Ti734  1  0.18445608  0.45168103  0.35449085  1.0
  Ti  Ti735  1  0.18445608  0.61834770  0.35449085  1.0
  Ti  Ti736  1  0.18445608  0.78501436  0.35449085  1.0
  Ti  Ti737  1  0.18445608  0.95168103  0.35449085  1.0
  Ti  Ti738  1  0.26778941  0.11834770  0.35449085  1.0
  Ti  Ti739  1  0.26778941  0.28501436  0.35449085  1.0
  Ti  Ti740  1  0.26778941  0.45168103  0.35449085  1.0
  Ti  Ti741  1  0.26778941  0.61834770  0.35449085  1.0
  Ti  Ti742  1  0.26778941  0.78501436  0.35449085  1.0
  Ti  Ti743  1  0.26778941  0.95168103  0.35449085  1.0
  Ti  Ti744  1  0.35112275  0.11834770  0.35449085  1.0
  Ti  Ti745  1  0.35112275  0.28501436  0.35449085  1.0
  Ti  Ti746  1  0.35112275  0.45168103  0.35449085  1.0
  Ti  Ti747  1  0.35112275  0.61834770  0.35449085  1.0
  Ti  Ti748  1  0.35112275  0.78501436  0.35449085  1.0
  Ti  Ti749  1  0.35112275  0.95168103  0.35449085  1.0
  Ti  Ti750  1  0.43445608  0.11834770  0.35449085  1.0
  Ti  Ti751  1  0.43445608  0.28501436  0.35449085  1.0
  Ti  Ti752  1  0.43445608  0.45168103  0.35449085  1.0
  Ti  Ti753  1  0.43445608  0.61834770  0.35449085  1.0
  Ti  Ti754  1  0.43445608  0.78501436  0.35449085  1.0
  Ti  Ti755  1  0.43445608  0.95168103  0.35449085  1.0
  Ti  Ti756  1  0.51778941  0.11834770  0.35449085  1.0
  Ti  Ti757  1  0.51778941  0.28501436  0.35449085  1.0
  Ti  Ti758  1  0.51778941  0.45168103  0.35449085  1.0
  Ti  Ti759  1  0.51778941  0.61834770  0.35449085  1.0
  Ti  Ti760  1  0.51778941  0.78501436  0.35449085  1.0
  Ti  Ti761  1  0.51778941  0.95168103  0.35449085  1.0
  Ti  Ti762  1  0.60112275  0.11834770  0.35449085  1.0
  Ti  Ti763  1  0.60112275  0.28501436  0.35449085  1.0
  Ti  Ti764  1  0.60112275  0.45168103  0.35449085  1.0
  Ti  Ti765  1  0.60112275  0.61834770  0.35449085  1.0
  Ti  Ti766  1  0.60112275  0.78501436  0.35449085  1.0
  Ti  Ti767  1  0.60112275  0.95168103  0.35449085  1.0
  Ti  Ti768  1  0.68445608  0.11834770  0.35449085  1.0
  Ti  Ti769  1  0.68445608  0.28501436  0.35449085  1.0
  Ti  Ti770  1  0.68445608  0.45168103  0.35449085  1.0
  Ti  Ti771  1  0.68445608  0.61834770  0.35449085  1.0
  Ti  Ti772  1  0.68445608  0.78501436  0.35449085  1.0
  Ti  Ti773  1  0.68445608  0.95168103  0.35449085  1.0
  Ti  Ti774  1  0.76778941  0.11834770  0.35449085  1.0
  Ti  Ti775  1  0.76778941  0.28501436  0.35449085  1.0
  Ti  Ti776  1  0.76778941  0.45168103  0.35449085  1.0
  Ti  Ti777  1  0.76778941  0.61834770  0.35449085  1.0
  Ti  Ti778  1  0.76778941  0.78501436  0.35449085  1.0
  Ti  Ti779  1  0.76778941  0.95168103  0.35449085  1.0
  Ti  Ti780  1  0.85112275  0.11834770  0.35449085  1.0
  Ti  Ti781  1  0.85112275  0.28501436  0.35449085  1.0
  Ti  Ti782  1  0.85112275  0.45168103  0.35449085  1.0
  Ti  Ti783  1  0.85112275  0.61834770  0.35449085  1.0
  Ti  Ti784  1  0.85112275  0.78501436  0.35449085  1.0
  Ti  Ti785  1  0.85112275  0.95168103  0.35449085  1.0
  Ti  Ti786  1  0.93445608  0.11834770  0.35449085  1.0
  Ti  Ti787  1  0.93445608  0.28501436  0.35449085  1.0
  Ti  Ti788  1  0.93445608  0.45168103  0.35449085  1.0
  Ti  Ti789  1  0.93445608  0.61834770  0.35449085  1.0
  Ti  Ti790  1  0.93445608  0.78501436  0.35449085  1.0
  Ti  Ti791  1  0.93445608  0.95168103  0.35449085  1.0
  Ti  Ti792  1  0.04159894  0.13025246  0.28306228  1.0
  Ti  Ti793  1  0.04159894  0.29691912  0.28306228  1.0
  Ti  Ti794  1  0.04159894  0.46358579  0.28306228  1.0
  Ti  Ti795  1  0.04159894  0.63025246  0.28306228  1.0
  Ti  Ti796  1  0.04159894  0.79691912  0.28306228  1.0
  Ti  Ti797  1  0.04159894  0.96358579  0.28306228  1.0
  Ti  Ti798  1  0.12493227  0.13025246  0.28306228  1.0
  Ti  Ti799  1  0.12493227  0.29691912  0.28306228  1.0
  Ti  Ti800  1  0.12493227  0.46358579  0.28306228  1.0
  Ti  Ti801  1  0.12493227  0.63025246  0.28306228  1.0
  Ti  Ti802  1  0.12493227  0.79691912  0.28306228  1.0
  Ti  Ti803  1  0.12493227  0.96358579  0.28306228  1.0
  Ti  Ti804  1  0.20826561  0.13025246  0.28306228  1.0
  Ti  Ti805  1  0.20826561  0.29691912  0.28306228  1.0
  Ti  Ti806  1  0.20826561  0.46358579  0.28306228  1.0
  Ti  Ti807  1  0.20826561  0.63025246  0.28306228  1.0
  Ti  Ti808  1  0.20826561  0.79691912  0.28306228  1.0
  Ti  Ti809  1  0.20826561  0.96358579  0.28306228  1.0
  Ti  Ti810  1  0.29159894  0.13025246  0.28306228  1.0
  Ti  Ti811  1  0.29159894  0.29691912  0.28306228  1.0
  Ti  Ti812  1  0.29159894  0.46358579  0.28306228  1.0
  Ti  Ti813  1  0.29159894  0.63025246  0.28306228  1.0
  Ti  Ti814  1  0.29159894  0.79691912  0.28306228  1.0
  Ti  Ti815  1  0.29159894  0.96358579  0.28306228  1.0
  Ti  Ti816  1  0.37493227  0.13025246  0.28306228  1.0
  Ti  Ti817  1  0.37493227  0.29691912  0.28306228  1.0
  Ti  Ti818  1  0.37493227  0.46358579  0.28306228  1.0
  Ti  Ti819  1  0.37493227  0.63025246  0.28306228  1.0
  Ti  Ti820  1  0.37493227  0.79691912  0.28306228  1.0
  Ti  Ti821  1  0.37493227  0.96358579  0.28306228  1.0
  Ti  Ti822  1  0.45826561  0.13025246  0.28306228  1.0
  Ti  Ti823  1  0.45826561  0.29691912  0.28306228  1.0
  Ti  Ti824  1  0.45826561  0.46358579  0.28306228  1.0
  Ti  Ti825  1  0.45826561  0.63025246  0.28306228  1.0
  Ti  Ti826  1  0.45826561  0.79691912  0.28306228  1.0
  Ti  Ti827  1  0.45826561  0.96358579  0.28306228  1.0
  Ti  Ti828  1  0.54159894  0.13025246  0.28306228  1.0
  Ti  Ti829  1  0.54159894  0.29691912  0.28306228  1.0
  Ti  Ti830  1  0.54159894  0.46358579  0.28306228  1.0
  Ti  Ti831  1  0.54159894  0.63025246  0.28306228  1.0
  Ti  Ti832  1  0.54159894  0.79691912  0.28306228  1.0
  Ti  Ti833  1  0.54159894  0.96358579  0.28306228  1.0
  Ti  Ti834  1  0.62493227  0.13025246  0.28306228  1.0
  Ti  Ti835  1  0.62493227  0.29691912  0.28306228  1.0
  Ti  Ti836  1  0.62493227  0.46358579  0.28306228  1.0
  Ti  Ti837  1  0.62493227  0.63025246  0.28306228  1.0
  Ti  Ti838  1  0.62493227  0.79691912  0.28306228  1.0
  Ti  Ti839  1  0.62493227  0.96358579  0.28306228  1.0
  Ti  Ti840  1  0.70826561  0.13025246  0.28306228  1.0
  Ti  Ti841  1  0.70826561  0.29691912  0.28306228  1.0
  Ti  Ti842  1  0.70826561  0.46358579  0.28306228  1.0
  Ti  Ti843  1  0.70826561  0.63025246  0.28306228  1.0
  Ti  Ti844  1  0.70826561  0.79691912  0.28306228  1.0
  Ti  Ti845  1  0.70826561  0.96358579  0.28306228  1.0
  Ti  Ti846  1  0.79159894  0.13025246  0.28306228  1.0
  Ti  Ti847  1  0.79159894  0.29691912  0.28306228  1.0
  Ti  Ti848  1  0.79159894  0.46358579  0.28306228  1.0
  Ti  Ti849  1  0.79159894  0.63025246  0.28306228  1.0
  Ti  Ti850  1  0.79159894  0.79691912  0.28306228  1.0
  Ti  Ti851  1  0.79159894  0.96358579  0.28306228  1.0
  Ti  Ti852  1  0.87493227  0.13025246  0.28306228  1.0
  Ti  Ti853  1  0.87493227  0.29691912  0.28306228  1.0
  Ti  Ti854  1  0.87493227  0.46358579  0.28306228  1.0
  Ti  Ti855  1  0.87493227  0.63025246  0.28306228  1.0
  Ti  Ti856  1  0.87493227  0.79691912  0.28306228  1.0
  Ti  Ti857  1  0.87493227  0.96358579  0.28306228  1.0
  Ti  Ti858  1  0.95826561  0.13025246  0.28306228  1.0
  Ti  Ti859  1  0.95826561  0.29691912  0.28306228  1.0
  Ti  Ti860  1  0.95826561  0.46358579  0.28306228  1.0
  Ti  Ti861  1  0.95826561  0.63025246  0.28306228  1.0
  Ti  Ti862  1  0.95826561  0.79691912  0.28306228  1.0
  Ti  Ti863  1  0.95826561  0.96358579  0.28306228  1.0
  Ti  Ti864  1  0.06458802  0.05081304  0.33879212  1.0
  Ti  Ti865  1  0.06458802  0.21747971  0.33879212  1.0
  Ti  Ti866  1  0.06458802  0.38414637  0.33879212  1.0
  Ti  Ti867  1  0.06458802  0.55081304  0.33879212  1.0
  Ti  Ti868  1  0.06458802  0.71747971  0.33879212  1.0
  Ti  Ti869  1  0.06458802  0.88414637  0.33879212  1.0
  Ti  Ti870  1  0.14792136  0.05081304  0.33879212  1.0
  Ti  Ti871  1  0.14792136  0.21747971  0.33879212  1.0
  Ti  Ti872  1  0.14792136  0.38414637  0.33879212  1.0
  Ti  Ti873  1  0.14792136  0.55081304  0.33879212  1.0
  Ti  Ti874  1  0.14792136  0.71747971  0.33879212  1.0
  Ti  Ti875  1  0.14792136  0.88414637  0.33879212  1.0
  Ti  Ti876  1  0.23125469  0.05081304  0.33879212  1.0
  Ti  Ti877  1  0.23125469  0.21747971  0.33879212  1.0
  Ti  Ti878  1  0.23125469  0.38414637  0.33879212  1.0
  Ti  Ti879  1  0.23125469  0.55081304  0.33879212  1.0
  Ti  Ti880  1  0.23125469  0.71747971  0.33879212  1.0
  Ti  Ti881  1  0.23125469  0.88414637  0.33879212  1.0
  Ti  Ti882  1  0.31458802  0.05081304  0.33879212  1.0
  Ti  Ti883  1  0.31458802  0.21747971  0.33879212  1.0
  Ti  Ti884  1  0.31458802  0.38414637  0.33879212  1.0
  Ti  Ti885  1  0.31458802  0.55081304  0.33879212  1.0
  Ti  Ti886  1  0.31458802  0.71747971  0.33879212  1.0
  Ti  Ti887  1  0.31458802  0.88414637  0.33879212  1.0
  Ti  Ti888  1  0.39792136  0.05081304  0.33879212  1.0
  Ti  Ti889  1  0.39792136  0.21747971  0.33879212  1.0
  Ti  Ti890  1  0.39792136  0.38414637  0.33879212  1.0
  Ti  Ti891  1  0.39792136  0.55081304  0.33879212  1.0
  Ti  Ti892  1  0.39792136  0.71747971  0.33879212  1.0
  Ti  Ti893  1  0.39792136  0.88414637  0.33879212  1.0
  Ti  Ti894  1  0.48125469  0.05081304  0.33879212  1.0
  Ti  Ti895  1  0.48125469  0.21747971  0.33879212  1.0
  Ti  Ti896  1  0.48125469  0.38414637  0.33879212  1.0
  Ti  Ti897  1  0.48125469  0.55081304  0.33879212  1.0
  Ti  Ti898  1  0.48125469  0.71747971  0.33879212  1.0
  Ti  Ti899  1  0.48125469  0.88414637  0.33879212  1.0
  Ti  Ti900  1  0.56458802  0.05081304  0.33879212  1.0
  Ti  Ti901  1  0.56458802  0.21747971  0.33879212  1.0
  Ti  Ti902  1  0.56458802  0.38414637  0.33879212  1.0
  Ti  Ti903  1  0.56458802  0.55081304  0.33879212  1.0
  Ti  Ti904  1  0.56458802  0.71747971  0.33879212  1.0
  Ti  Ti905  1  0.56458802  0.88414637  0.33879212  1.0
  Ti  Ti906  1  0.64792136  0.05081304  0.33879212  1.0
  Ti  Ti907  1  0.64792136  0.21747971  0.33879212  1.0
  Ti  Ti908  1  0.64792136  0.38414637  0.33879212  1.0
  Ti  Ti909  1  0.64792136  0.55081304  0.33879212  1.0
  Ti  Ti910  1  0.64792136  0.71747971  0.33879212  1.0
  Ti  Ti911  1  0.64792136  0.88414637  0.33879212  1.0
  Ti  Ti912  1  0.73125469  0.05081304  0.33879212  1.0
  Ti  Ti913  1  0.73125469  0.21747971  0.33879212  1.0
  Ti  Ti914  1  0.73125469  0.38414637  0.33879212  1.0
  Ti  Ti915  1  0.73125469  0.55081304  0.33879212  1.0
  Ti  Ti916  1  0.73125469  0.71747971  0.33879212  1.0
  Ti  Ti917  1  0.73125469  0.88414637  0.33879212  1.0
  Ti  Ti918  1  0.81458802  0.05081304  0.33879212  1.0
  Ti  Ti919  1  0.81458802  0.21747971  0.33879212  1.0
  Ti  Ti920  1  0.81458802  0.38414637  0.33879212  1.0
  Ti  Ti921  1  0.81458802  0.55081304  0.33879212  1.0
  Ti  Ti922  1  0.81458802  0.71747971  0.33879212  1.0
  Ti  Ti923  1  0.81458802  0.88414637  0.33879212  1.0
  Ti  Ti924  1  0.89792136  0.05081304  0.33879212  1.0
  Ti  Ti925  1  0.89792136  0.21747971  0.33879212  1.0
  Ti  Ti926  1  0.89792136  0.38414637  0.33879212  1.0
  Ti  Ti927  1  0.89792136  0.55081304  0.33879212  1.0
  Ti  Ti928  1  0.89792136  0.71747971  0.33879212  1.0
  Ti  Ti929  1  0.89792136  0.88414637  0.33879212  1.0
  Ti  Ti930  1  0.98125469  0.05081304  0.33879212  1.0
  Ti  Ti931  1  0.98125469  0.21747971  0.33879212  1.0
  Ti  Ti932  1  0.98125469  0.38414637  0.33879212  1.0
  Ti  Ti933  1  0.98125469  0.55081304  0.33879212  1.0
  Ti  Ti934  1  0.98125469  0.71747971  0.33879212  1.0
  Ti  Ti935  1  0.98125469  0.88414637  0.33879212  1.0
  Ti  Ti936  1  0.00506421  0.06271780  0.26736355  1.0
  Ti  Ti937  1  0.00506421  0.22938447  0.26736355  1.0
  Ti  Ti938  1  0.00506421  0.39605114  0.26736355  1.0
  Ti  Ti939  1  0.00506421  0.56271780  0.26736355  1.0
  Ti  Ti940  1  0.00506421  0.72938447  0.26736355  1.0
  Ti  Ti941  1  0.00506421  0.89605114  0.26736355  1.0
  Ti  Ti942  1  0.08839755  0.06271780  0.26736355  1.0
  Ti  Ti943  1  0.08839755  0.22938447  0.26736355  1.0
  Ti  Ti944  1  0.08839755  0.39605114  0.26736355  1.0
  Ti  Ti945  1  0.08839755  0.56271780  0.26736355  1.0
  Ti  Ti946  1  0.08839755  0.72938447  0.26736355  1.0
  Ti  Ti947  1  0.08839755  0.89605114  0.26736355  1.0
  Ti  Ti948  1  0.17173088  0.06271780  0.26736355  1.0
  Ti  Ti949  1  0.17173088  0.22938447  0.26736355  1.0
  Ti  Ti950  1  0.17173088  0.39605114  0.26736355  1.0
  Ti  Ti951  1  0.17173088  0.56271780  0.26736355  1.0
  Ti  Ti952  1  0.17173088  0.72938447  0.26736355  1.0
  Ti  Ti953  1  0.17173088  0.89605114  0.26736355  1.0
  Ti  Ti954  1  0.25506421  0.06271780  0.26736355  1.0
  Ti  Ti955  1  0.25506421  0.22938447  0.26736355  1.0
  Ti  Ti956  1  0.25506421  0.39605114  0.26736355  1.0
  Ti  Ti957  1  0.25506421  0.56271780  0.26736355  1.0
  Ti  Ti958  1  0.25506421  0.72938447  0.26736355  1.0
  Ti  Ti959  1  0.25506421  0.89605114  0.26736355  1.0
  Ti  Ti960  1  0.33839755  0.06271780  0.26736355  1.0
  Ti  Ti961  1  0.33839755  0.22938447  0.26736355  1.0
  Ti  Ti962  1  0.33839755  0.39605114  0.26736355  1.0
  Ti  Ti963  1  0.33839755  0.56271780  0.26736355  1.0
  Ti  Ti964  1  0.33839755  0.72938447  0.26736355  1.0
  Ti  Ti965  1  0.33839755  0.89605114  0.26736355  1.0
  Ti  Ti966  1  0.42173088  0.06271780  0.26736355  1.0
  Ti  Ti967  1  0.42173088  0.22938447  0.26736355  1.0
  Ti  Ti968  1  0.42173088  0.39605114  0.26736355  1.0
  Ti  Ti969  1  0.42173088  0.56271780  0.26736355  1.0
  Ti  Ti970  1  0.42173088  0.72938447  0.26736355  1.0
  Ti  Ti971  1  0.42173088  0.89605114  0.26736355  1.0
  Ti  Ti972  1  0.50506421  0.06271780  0.26736355  1.0
  Ti  Ti973  1  0.50506421  0.22938447  0.26736355  1.0
  Ti  Ti974  1  0.50506421  0.39605114  0.26736355  1.0
  Ti  Ti975  1  0.50506421  0.56271780  0.26736355  1.0
  Ti  Ti976  1  0.50506421  0.72938447  0.26736355  1.0
  Ti  Ti977  1  0.50506421  0.89605114  0.26736355  1.0
  Ti  Ti978  1  0.58839755  0.06271780  0.26736355  1.0
  Ti  Ti979  1  0.58839755  0.22938447  0.26736355  1.0
  Ti  Ti980  1  0.58839755  0.39605114  0.26736355  1.0
  Ti  Ti981  1  0.58839755  0.56271780  0.26736355  1.0
  Ti  Ti982  1  0.58839755  0.72938447  0.26736355  1.0
  Ti  Ti983  1  0.58839755  0.89605114  0.26736355  1.0
  Ti  Ti984  1  0.67173088  0.06271780  0.26736355  1.0
  Ti  Ti985  1  0.67173088  0.22938447  0.26736355  1.0
  Ti  Ti986  1  0.67173088  0.39605114  0.26736355  1.0
  Ti  Ti987  1  0.67173088  0.56271780  0.26736355  1.0
  Ti  Ti988  1  0.67173088  0.72938447  0.26736355  1.0
  Ti  Ti989  1  0.67173088  0.89605114  0.26736355  1.0
  Ti  Ti990  1  0.75506421  0.06271780  0.26736355  1.0
  Ti  Ti991  1  0.75506421  0.22938447  0.26736355  1.0
  Ti  Ti992  1  0.75506421  0.39605114  0.26736355  1.0
  Ti  Ti993  1  0.75506421  0.56271780  0.26736355  1.0
  Ti  Ti994  1  0.75506421  0.72938447  0.26736355  1.0
  Ti  Ti995  1  0.75506421  0.89605114  0.26736355  1.0
  Ti  Ti996  1  0.83839755  0.06271780  0.26736355  1.0
  Ti  Ti997  1  0.83839755  0.22938447  0.26736355  1.0
  Ti  Ti998  1  0.83839755  0.39605114  0.26736355  1.0
  Ti  Ti999  1  0.83839755  0.56271780  0.26736355  1.0
  Ti  Ti1000  1  0.83839755  0.72938447  0.26736355  1.0
  Ti  Ti1001  1  0.83839755  0.89605114  0.26736355  1.0
  Ti  Ti1002  1  0.92173088  0.06271780  0.26736355  1.0
  Ti  Ti1003  1  0.92173088  0.22938447  0.26736355  1.0
  Ti  Ti1004  1  0.92173088  0.39605114  0.26736355  1.0
  Ti  Ti1005  1  0.92173088  0.56271780  0.26736355  1.0
  Ti  Ti1006  1  0.92173088  0.72938447  0.26736355  1.0
  Ti  Ti1007  1  0.92173088  0.89605114  0.26736355  1.0
  Ti  Ti1008  1  0.06833435  0.00344032  0.33143755  1.0
  Ti  Ti1009  1  0.06833435  0.17010699  0.33143755  1.0
  Ti  Ti1010  1  0.06833435  0.33677365  0.33143755  1.0
  Ti  Ti1011  1  0.06833435  0.50344032  0.33143755  1.0
  Ti  Ti1012  1  0.06833435  0.67010699  0.33143755  1.0
  Ti  Ti1013  1  0.06833435  0.83677365  0.33143755  1.0
  Ti  Ti1014  1  0.15166769  0.00344032  0.33143755  1.0
  Ti  Ti1015  1  0.15166769  0.17010699  0.33143755  1.0
  Ti  Ti1016  1  0.15166769  0.33677365  0.33143755  1.0
  Ti  Ti1017  1  0.15166769  0.50344032  0.33143755  1.0
  Ti  Ti1018  1  0.15166769  0.67010699  0.33143755  1.0
  Ti  Ti1019  1  0.15166769  0.83677365  0.33143755  1.0
  Ti  Ti1020  1  0.23500102  0.00344032  0.33143755  1.0
  Ti  Ti1021  1  0.23500102  0.17010699  0.33143755  1.0
  Ti  Ti1022  1  0.23500102  0.33677365  0.33143755  1.0
  Ti  Ti1023  1  0.23500102  0.50344032  0.33143755  1.0
  Ti  Ti1024  1  0.23500102  0.67010699  0.33143755  1.0
  Ti  Ti1025  1  0.23500102  0.83677365  0.33143755  1.0
  Ti  Ti1026  1  0.31833435  0.00344032  0.33143755  1.0
  Ti  Ti1027  1  0.31833435  0.17010699  0.33143755  1.0
  Ti  Ti1028  1  0.31833435  0.33677365  0.33143755  1.0
  Ti  Ti1029  1  0.31833435  0.50344032  0.33143755  1.0
  Ti  Ti1030  1  0.31833435  0.67010699  0.33143755  1.0
  Ti  Ti1031  1  0.31833435  0.83677365  0.33143755  1.0
  Ti  Ti1032  1  0.40166769  0.00344032  0.33143755  1.0
  Ti  Ti1033  1  0.40166769  0.17010699  0.33143755  1.0
  Ti  Ti1034  1  0.40166769  0.33677365  0.33143755  1.0
  Ti  Ti1035  1  0.40166769  0.50344032  0.33143755  1.0
  Ti  Ti1036  1  0.40166769  0.67010699  0.33143755  1.0
  Ti  Ti1037  1  0.40166769  0.83677365  0.33143755  1.0
  Ti  Ti1038  1  0.48500102  0.00344032  0.33143755  1.0
  Ti  Ti1039  1  0.48500102  0.17010699  0.33143755  1.0
  Ti  Ti1040  1  0.48500102  0.33677365  0.33143755  1.0
  Ti  Ti1041  1  0.48500102  0.50344032  0.33143755  1.0
  Ti  Ti1042  1  0.48500102  0.67010699  0.33143755  1.0
  Ti  Ti1043  1  0.48500102  0.83677365  0.33143755  1.0
  Ti  Ti1044  1  0.56833435  0.00344032  0.33143755  1.0
  Ti  Ti1045  1  0.56833435  0.17010699  0.33143755  1.0
  Ti  Ti1046  1  0.56833435  0.33677365  0.33143755  1.0
  Ti  Ti1047  1  0.56833435  0.50344032  0.33143755  1.0
  Ti  Ti1048  1  0.56833435  0.67010699  0.33143755  1.0
  Ti  Ti1049  1  0.56833435  0.83677365  0.33143755  1.0
  Ti  Ti1050  1  0.65166769  0.00344032  0.33143755  1.0
  Ti  Ti1051  1  0.65166769  0.17010699  0.33143755  1.0
  Ti  Ti1052  1  0.65166769  0.33677365  0.33143755  1.0
  Ti  Ti1053  1  0.65166769  0.50344032  0.33143755  1.0
  Ti  Ti1054  1  0.65166769  0.67010699  0.33143755  1.0
  Ti  Ti1055  1  0.65166769  0.83677365  0.33143755  1.0
  Ti  Ti1056  1  0.73500102  0.00344032  0.33143755  1.0
  Ti  Ti1057  1  0.73500102  0.17010699  0.33143755  1.0
  Ti  Ti1058  1  0.73500102  0.33677365  0.33143755  1.0
  Ti  Ti1059  1  0.73500102  0.50344032  0.33143755  1.0
  Ti  Ti1060  1  0.73500102  0.67010699  0.33143755  1.0
  Ti  Ti1061  1  0.73500102  0.83677365  0.33143755  1.0
  Ti  Ti1062  1  0.81833435  0.00344032  0.33143755  1.0
  Ti  Ti1063  1  0.81833435  0.17010699  0.33143755  1.0
  Ti  Ti1064  1  0.81833435  0.33677365  0.33143755  1.0
  Ti  Ti1065  1  0.81833435  0.50344032  0.33143755  1.0
  Ti  Ti1066  1  0.81833435  0.67010699  0.33143755  1.0
  Ti  Ti1067  1  0.81833435  0.83677365  0.33143755  1.0
  Ti  Ti1068  1  0.90166769  0.00344032  0.33143755  1.0
  Ti  Ti1069  1  0.90166769  0.17010699  0.33143755  1.0
  Ti  Ti1070  1  0.90166769  0.33677365  0.33143755  1.0
  Ti  Ti1071  1  0.90166769  0.50344032  0.33143755  1.0
  Ti  Ti1072  1  0.90166769  0.67010699  0.33143755  1.0
  Ti  Ti1073  1  0.90166769  0.83677365  0.33143755  1.0
  Ti  Ti1074  1  0.98500102  0.00344032  0.33143755  1.0
  Ti  Ti1075  1  0.98500102  0.17010699  0.33143755  1.0
  Ti  Ti1076  1  0.98500102  0.33677365  0.33143755  1.0
  Ti  Ti1077  1  0.98500102  0.50344032  0.33143755  1.0
  Ti  Ti1078  1  0.98500102  0.67010699  0.33143755  1.0
  Ti  Ti1079  1  0.98500102  0.83677365  0.33143755  1.0
  Ti  Ti1080  1  0.00881054  0.01534508  0.26000897  1.0
  Ti  Ti1081  1  0.00881054  0.18201175  0.26000897  1.0
  Ti  Ti1082  1  0.00881054  0.34867842  0.26000897  1.0
  Ti  Ti1083  1  0.00881054  0.51534508  0.26000897  1.0
  Ti  Ti1084  1  0.00881054  0.68201175  0.26000897  1.0
  Ti  Ti1085  1  0.00881054  0.84867842  0.26000897  1.0
  Ti  Ti1086  1  0.09214388  0.01534508  0.26000897  1.0
  Ti  Ti1087  1  0.09214388  0.18201175  0.26000897  1.0
  Ti  Ti1088  1  0.09214388  0.34867842  0.26000897  1.0
  Ti  Ti1089  1  0.09214388  0.51534508  0.26000897  1.0
  Ti  Ti1090  1  0.09214388  0.68201175  0.26000897  1.0
  Ti  Ti1091  1  0.09214388  0.84867842  0.26000897  1.0
  Ti  Ti1092  1  0.17547721  0.01534508  0.26000897  1.0
  Ti  Ti1093  1  0.17547721  0.18201175  0.26000897  1.0
  Ti  Ti1094  1  0.17547721  0.34867842  0.26000897  1.0
  Ti  Ti1095  1  0.17547721  0.51534508  0.26000897  1.0
  Ti  Ti1096  1  0.17547721  0.68201175  0.26000897  1.0
  Ti  Ti1097  1  0.17547721  0.84867842  0.26000897  1.0
  Ti  Ti1098  1  0.25881054  0.01534508  0.26000897  1.0
  Ti  Ti1099  1  0.25881054  0.18201175  0.26000897  1.0
  Ti  Ti1100  1  0.25881054  0.34867842  0.26000897  1.0
  Ti  Ti1101  1  0.25881054  0.51534508  0.26000897  1.0
  Ti  Ti1102  1  0.25881054  0.68201175  0.26000897  1.0
  Ti  Ti1103  1  0.25881054  0.84867842  0.26000897  1.0
  Ti  Ti1104  1  0.34214388  0.01534508  0.26000897  1.0
  Ti  Ti1105  1  0.34214388  0.18201175  0.26000897  1.0
  Ti  Ti1106  1  0.34214388  0.34867842  0.26000897  1.0
  Ti  Ti1107  1  0.34214388  0.51534508  0.26000897  1.0
  Ti  Ti1108  1  0.34214388  0.68201175  0.26000897  1.0
  Ti  Ti1109  1  0.34214388  0.84867842  0.26000897  1.0
  Ti  Ti1110  1  0.42547721  0.01534508  0.26000897  1.0
  Ti  Ti1111  1  0.42547721  0.18201175  0.26000897  1.0
  Ti  Ti1112  1  0.42547721  0.34867842  0.26000897  1.0
  Ti  Ti1113  1  0.42547721  0.51534508  0.26000897  1.0
  Ti  Ti1114  1  0.42547721  0.68201175  0.26000897  1.0
  Ti  Ti1115  1  0.42547721  0.84867842  0.26000897  1.0
  Ti  Ti1116  1  0.50881054  0.01534508  0.26000897  1.0
  Ti  Ti1117  1  0.50881054  0.18201175  0.26000897  1.0
  Ti  Ti1118  1  0.50881054  0.34867842  0.26000897  1.0
  Ti  Ti1119  1  0.50881054  0.51534508  0.26000897  1.0
  Ti  Ti1120  1  0.50881054  0.68201175  0.26000897  1.0
  Ti  Ti1121  1  0.50881054  0.84867842  0.26000897  1.0
  Ti  Ti1122  1  0.59214388  0.01534508  0.26000897  1.0
  Ti  Ti1123  1  0.59214388  0.18201175  0.26000897  1.0
  Ti  Ti1124  1  0.59214388  0.34867842  0.26000897  1.0
  Ti  Ti1125  1  0.59214388  0.51534508  0.26000897  1.0
  Ti  Ti1126  1  0.59214388  0.68201175  0.26000897  1.0
  Ti  Ti1127  1  0.59214388  0.84867842  0.26000897  1.0
  Ti  Ti1128  1  0.67547721  0.01534508  0.26000897  1.0
  Ti  Ti1129  1  0.67547721  0.18201175  0.26000897  1.0
  Ti  Ti1130  1  0.67547721  0.34867842  0.26000897  1.0
  Ti  Ti1131  1  0.67547721  0.51534508  0.26000897  1.0
  Ti  Ti1132  1  0.67547721  0.68201175  0.26000897  1.0
  Ti  Ti1133  1  0.67547721  0.84867842  0.26000897  1.0
  Ti  Ti1134  1  0.75881054  0.01534508  0.26000897  1.0
  Ti  Ti1135  1  0.75881054  0.18201175  0.26000897  1.0
  Ti  Ti1136  1  0.75881054  0.34867842  0.26000897  1.0
  Ti  Ti1137  1  0.75881054  0.51534508  0.26000897  1.0
  Ti  Ti1138  1  0.75881054  0.68201175  0.26000897  1.0
  Ti  Ti1139  1  0.75881054  0.84867842  0.26000897  1.0
  Ti  Ti1140  1  0.84214388  0.01534508  0.26000897  1.0
  Ti  Ti1141  1  0.84214388  0.18201175  0.26000897  1.0
  Ti  Ti1142  1  0.84214388  0.34867842  0.26000897  1.0
  Ti  Ti1143  1  0.84214388  0.51534508  0.26000897  1.0
  Ti  Ti1144  1  0.84214388  0.68201175  0.26000897  1.0
  Ti  Ti1145  1  0.84214388  0.84867842  0.26000897  1.0
  Ti  Ti1146  1  0.92547721  0.01534508  0.26000897  1.0
  Ti  Ti1147  1  0.92547721  0.18201175  0.26000897  1.0
  Ti  Ti1148  1  0.92547721  0.34867842  0.26000897  1.0
  Ti  Ti1149  1  0.92547721  0.51534508  0.26000897  1.0
  Ti  Ti1150  1  0.92547721  0.68201175  0.26000897  1.0
  Ti  Ti1151  1  0.92547721  0.84867842  0.26000897  1.0
  Ti  Ti1152  1  0.06137403  0.09473267  0.34871113  1.0
  Ti  Ti1153  1  0.06137403  0.26139934  0.34871113  1.0
  Ti  Ti1154  1  0.06137403  0.42806601  0.34871113  1.0
  Ti  Ti1155  1  0.06137403  0.59473267  0.34871113  1.0
  Ti  Ti1156  1  0.06137403  0.76139934  0.34871113  1.0
  Ti  Ti1157  1  0.06137403  0.92806601  0.34871113  1.0
  Ti  Ti1158  1  0.14470736  0.09473267  0.34871113  1.0
  Ti  Ti1159  1  0.14470736  0.26139934  0.34871113  1.0
  Ti  Ti1160  1  0.14470736  0.42806601  0.34871113  1.0
  Ti  Ti1161  1  0.14470736  0.59473267  0.34871113  1.0
  Ti  Ti1162  1  0.14470736  0.76139934  0.34871113  1.0
  Ti  Ti1163  1  0.14470736  0.92806601  0.34871113  1.0
  Ti  Ti1164  1  0.22804069  0.09473267  0.34871113  1.0
  Ti  Ti1165  1  0.22804069  0.26139934  0.34871113  1.0
  Ti  Ti1166  1  0.22804069  0.42806601  0.34871113  1.0
  Ti  Ti1167  1  0.22804069  0.59473267  0.34871113  1.0
  Ti  Ti1168  1  0.22804069  0.76139934  0.34871113  1.0
  Ti  Ti1169  1  0.22804069  0.92806601  0.34871113  1.0
  Ti  Ti1170  1  0.31137403  0.09473267  0.34871113  1.0
  Ti  Ti1171  1  0.31137403  0.26139934  0.34871113  1.0
  Ti  Ti1172  1  0.31137403  0.42806601  0.34871113  1.0
  Ti  Ti1173  1  0.31137403  0.59473267  0.34871113  1.0
  Ti  Ti1174  1  0.31137403  0.76139934  0.34871113  1.0
  Ti  Ti1175  1  0.31137403  0.92806601  0.34871113  1.0
  Ti  Ti1176  1  0.39470736  0.09473267  0.34871113  1.0
  Ti  Ti1177  1  0.39470736  0.26139934  0.34871113  1.0
  Ti  Ti1178  1  0.39470736  0.42806601  0.34871113  1.0
  Ti  Ti1179  1  0.39470736  0.59473267  0.34871113  1.0
  Ti  Ti1180  1  0.39470736  0.76139934  0.34871113  1.0
  Ti  Ti1181  1  0.39470736  0.92806601  0.34871113  1.0
  Ti  Ti1182  1  0.47804069  0.09473267  0.34871113  1.0
  Ti  Ti1183  1  0.47804069  0.26139934  0.34871113  1.0
  Ti  Ti1184  1  0.47804069  0.42806601  0.34871113  1.0
  Ti  Ti1185  1  0.47804069  0.59473267  0.34871113  1.0
  Ti  Ti1186  1  0.47804069  0.76139934  0.34871113  1.0
  Ti  Ti1187  1  0.47804069  0.92806601  0.34871113  1.0
  Ti  Ti1188  1  0.56137403  0.09473267  0.34871113  1.0
  Ti  Ti1189  1  0.56137403  0.26139934  0.34871113  1.0
  Ti  Ti1190  1  0.56137403  0.42806601  0.34871113  1.0
  Ti  Ti1191  1  0.56137403  0.59473267  0.34871113  1.0
  Ti  Ti1192  1  0.56137403  0.76139934  0.34871113  1.0
  Ti  Ti1193  1  0.56137403  0.92806601  0.34871113  1.0
  Ti  Ti1194  1  0.64470736  0.09473267  0.34871113  1.0
  Ti  Ti1195  1  0.64470736  0.26139934  0.34871113  1.0
  Ti  Ti1196  1  0.64470736  0.42806601  0.34871113  1.0
  Ti  Ti1197  1  0.64470736  0.59473267  0.34871113  1.0
  Ti  Ti1198  1  0.64470736  0.76139934  0.34871113  1.0
  Ti  Ti1199  1  0.64470736  0.92806601  0.34871113  1.0
  Ti  Ti1200  1  0.72804069  0.09473267  0.34871113  1.0
  Ti  Ti1201  1  0.72804069  0.26139934  0.34871113  1.0
  Ti  Ti1202  1  0.72804069  0.42806601  0.34871113  1.0
  Ti  Ti1203  1  0.72804069  0.59473267  0.34871113  1.0
  Ti  Ti1204  1  0.72804069  0.76139934  0.34871113  1.0
  Ti  Ti1205  1  0.72804069  0.92806601  0.34871113  1.0
  Ti  Ti1206  1  0.81137403  0.09473267  0.34871113  1.0
  Ti  Ti1207  1  0.81137403  0.26139934  0.34871113  1.0
  Ti  Ti1208  1  0.81137403  0.42806601  0.34871113  1.0
  Ti  Ti1209  1  0.81137403  0.59473267  0.34871113  1.0
  Ti  Ti1210  1  0.81137403  0.76139934  0.34871113  1.0
  Ti  Ti1211  1  0.81137403  0.92806601  0.34871113  1.0
  Ti  Ti1212  1  0.89470736  0.09473267  0.34871113  1.0
  Ti  Ti1213  1  0.89470736  0.26139934  0.34871113  1.0
  Ti  Ti1214  1  0.89470736  0.42806601  0.34871113  1.0
  Ti  Ti1215  1  0.89470736  0.59473267  0.34871113  1.0
  Ti  Ti1216  1  0.89470736  0.76139934  0.34871113  1.0
  Ti  Ti1217  1  0.89470736  0.92806601  0.34871113  1.0
  Ti  Ti1218  1  0.97804069  0.09473267  0.34871113  1.0
  Ti  Ti1219  1  0.97804069  0.26139934  0.34871113  1.0
  Ti  Ti1220  1  0.97804069  0.42806601  0.34871113  1.0
  Ti  Ti1221  1  0.97804069  0.59473267  0.34871113  1.0
  Ti  Ti1222  1  0.97804069  0.76139934  0.34871113  1.0
  Ti  Ti1223  1  0.97804069  0.92806601  0.34871113  1.0
  Ti  Ti1224  1  0.00185022  0.10663743  0.27728256  1.0
  Ti  Ti1225  1  0.00185022  0.27330410  0.27728256  1.0
  Ti  Ti1226  1  0.00185022  0.43997077  0.27728256  1.0
  Ti  Ti1227  1  0.00185022  0.60663743  0.27728256  1.0
  Ti  Ti1228  1  0.00185022  0.77330410  0.27728256  1.0
  Ti  Ti1229  1  0.00185022  0.93997077  0.27728256  1.0
  Ti  Ti1230  1  0.08518355  0.10663743  0.27728256  1.0
  Ti  Ti1231  1  0.08518355  0.27330410  0.27728256  1.0
  Ti  Ti1232  1  0.08518355  0.43997077  0.27728256  1.0
  Ti  Ti1233  1  0.08518355  0.60663743  0.27728256  1.0
  Ti  Ti1234  1  0.08518355  0.77330410  0.27728256  1.0
  Ti  Ti1235  1  0.08518355  0.93997077  0.27728256  1.0
  Ti  Ti1236  1  0.16851688  0.10663743  0.27728256  1.0
  Ti  Ti1237  1  0.16851688  0.27330410  0.27728256  1.0
  Ti  Ti1238  1  0.16851688  0.43997077  0.27728256  1.0
  Ti  Ti1239  1  0.16851688  0.60663743  0.27728256  1.0
  Ti  Ti1240  1  0.16851688  0.77330410  0.27728256  1.0
  Ti  Ti1241  1  0.16851688  0.93997077  0.27728256  1.0
  Ti  Ti1242  1  0.25185022  0.10663743  0.27728256  1.0
  Ti  Ti1243  1  0.25185022  0.27330410  0.27728256  1.0
  Ti  Ti1244  1  0.25185022  0.43997077  0.27728256  1.0
  Ti  Ti1245  1  0.25185022  0.60663743  0.27728256  1.0
  Ti  Ti1246  1  0.25185022  0.77330410  0.27728256  1.0
  Ti  Ti1247  1  0.25185022  0.93997077  0.27728256  1.0
  Ti  Ti1248  1  0.33518355  0.10663743  0.27728256  1.0
  Ti  Ti1249  1  0.33518355  0.27330410  0.27728256  1.0
  Ti  Ti1250  1  0.33518355  0.43997077  0.27728256  1.0
  Ti  Ti1251  1  0.33518355  0.60663743  0.27728256  1.0
  Ti  Ti1252  1  0.33518355  0.77330410  0.27728256  1.0
  Ti  Ti1253  1  0.33518355  0.93997077  0.27728256  1.0
  Ti  Ti1254  1  0.41851688  0.10663743  0.27728256  1.0
  Ti  Ti1255  1  0.41851688  0.27330410  0.27728256  1.0
  Ti  Ti1256  1  0.41851688  0.43997077  0.27728256  1.0
  Ti  Ti1257  1  0.41851688  0.60663743  0.27728256  1.0
  Ti  Ti1258  1  0.41851688  0.77330410  0.27728256  1.0
  Ti  Ti1259  1  0.41851688  0.93997077  0.27728256  1.0
  Ti  Ti1260  1  0.50185022  0.10663743  0.27728256  1.0
  Ti  Ti1261  1  0.50185022  0.27330410  0.27728256  1.0
  Ti  Ti1262  1  0.50185022  0.43997077  0.27728256  1.0
  Ti  Ti1263  1  0.50185022  0.60663743  0.27728256  1.0
  Ti  Ti1264  1  0.50185022  0.77330410  0.27728256  1.0
  Ti  Ti1265  1  0.50185022  0.93997077  0.27728256  1.0
  Ti  Ti1266  1  0.58518355  0.10663743  0.27728256  1.0
  Ti  Ti1267  1  0.58518355  0.27330410  0.27728256  1.0
  Ti  Ti1268  1  0.58518355  0.43997077  0.27728256  1.0
  Ti  Ti1269  1  0.58518355  0.60663743  0.27728256  1.0
  Ti  Ti1270  1  0.58518355  0.77330410  0.27728256  1.0
  Ti  Ti1271  1  0.58518355  0.93997077  0.27728256  1.0
  Ti  Ti1272  1  0.66851688  0.10663743  0.27728256  1.0
  Ti  Ti1273  1  0.66851688  0.27330410  0.27728256  1.0
  Ti  Ti1274  1  0.66851688  0.43997077  0.27728256  1.0
  Ti  Ti1275  1  0.66851688  0.60663743  0.27728256  1.0
  Ti  Ti1276  1  0.66851688  0.77330410  0.27728256  1.0
  Ti  Ti1277  1  0.66851688  0.93997077  0.27728256  1.0
  Ti  Ti1278  1  0.75185022  0.10663743  0.27728256  1.0
  Ti  Ti1279  1  0.75185022  0.27330410  0.27728256  1.0
  Ti  Ti1280  1  0.75185022  0.43997077  0.27728256  1.0
  Ti  Ti1281  1  0.75185022  0.60663743  0.27728256  1.0
  Ti  Ti1282  1  0.75185022  0.77330410  0.27728256  1.0
  Ti  Ti1283  1  0.75185022  0.93997077  0.27728256  1.0
  Ti  Ti1284  1  0.83518355  0.10663743  0.27728256  1.0
  Ti  Ti1285  1  0.83518355  0.27330410  0.27728256  1.0
  Ti  Ti1286  1  0.83518355  0.43997077  0.27728256  1.0
  Ti  Ti1287  1  0.83518355  0.60663743  0.27728256  1.0
  Ti  Ti1288  1  0.83518355  0.77330410  0.27728256  1.0
  Ti  Ti1289  1  0.83518355  0.93997077  0.27728256  1.0
  Ti  Ti1290  1  0.91851688  0.10663743  0.27728256  1.0
  Ti  Ti1291  1  0.91851688  0.27330410  0.27728256  1.0
  Ti  Ti1292  1  0.91851688  0.43997077  0.27728256  1.0
  Ti  Ti1293  1  0.91851688  0.60663743  0.27728256  1.0
  Ti  Ti1294  1  0.91851688  0.77330410  0.27728256  1.0
  Ti  Ti1295  1  0.91851688  0.93997077  0.27728256  1.0
  Ti  Ti1296  1  0.00804338  0.09065235  0.38716682  1.0
  Ti  Ti1297  1  0.00804338  0.25731902  0.38716682  1.0
  Ti  Ti1298  1  0.00804338  0.42398568  0.38716682  1.0
  Ti  Ti1299  1  0.00804338  0.59065235  0.38716682  1.0
  Ti  Ti1300  1  0.00804338  0.75731902  0.38716682  1.0
  Ti  Ti1301  1  0.00804338  0.92398568  0.38716682  1.0
  Ti  Ti1302  1  0.09137672  0.09065235  0.38716682  1.0
  Ti  Ti1303  1  0.09137672  0.25731902  0.38716682  1.0
  Ti  Ti1304  1  0.09137672  0.42398568  0.38716682  1.0
  Ti  Ti1305  1  0.09137672  0.59065235  0.38716682  1.0
  Ti  Ti1306  1  0.09137672  0.75731902  0.38716682  1.0
  Ti  Ti1307  1  0.09137672  0.92398568  0.38716682  1.0
  Ti  Ti1308  1  0.17471005  0.09065235  0.38716682  1.0
  Ti  Ti1309  1  0.17471005  0.25731902  0.38716682  1.0
  Ti  Ti1310  1  0.17471005  0.42398568  0.38716682  1.0
  Ti  Ti1311  1  0.17471005  0.59065235  0.38716682  1.0
  Ti  Ti1312  1  0.17471005  0.75731902  0.38716682  1.0
  Ti  Ti1313  1  0.17471005  0.92398568  0.38716682  1.0
  Ti  Ti1314  1  0.25804338  0.09065235  0.38716682  1.0
  Ti  Ti1315  1  0.25804338  0.25731902  0.38716682  1.0
  Ti  Ti1316  1  0.25804338  0.42398568  0.38716682  1.0
  Ti  Ti1317  1  0.25804338  0.59065235  0.38716682  1.0
  Ti  Ti1318  1  0.25804338  0.75731902  0.38716682  1.0
  Ti  Ti1319  1  0.25804338  0.92398568  0.38716682  1.0
  Ti  Ti1320  1  0.34137672  0.09065235  0.38716682  1.0
  Ti  Ti1321  1  0.34137672  0.25731902  0.38716682  1.0
  Ti  Ti1322  1  0.34137672  0.42398568  0.38716682  1.0
  Ti  Ti1323  1  0.34137672  0.59065235  0.38716682  1.0
  Ti  Ti1324  1  0.34137672  0.75731902  0.38716682  1.0
  Ti  Ti1325  1  0.34137672  0.92398568  0.38716682  1.0
  Ti  Ti1326  1  0.42471005  0.09065235  0.38716682  1.0
  Ti  Ti1327  1  0.42471005  0.25731902  0.38716682  1.0
  Ti  Ti1328  1  0.42471005  0.42398568  0.38716682  1.0
  Ti  Ti1329  1  0.42471005  0.59065235  0.38716682  1.0
  Ti  Ti1330  1  0.42471005  0.75731902  0.38716682  1.0
  Ti  Ti1331  1  0.42471005  0.92398568  0.38716682  1.0
  Ti  Ti1332  1  0.50804338  0.09065235  0.38716682  1.0
  Ti  Ti1333  1  0.50804338  0.25731902  0.38716682  1.0
  Ti  Ti1334  1  0.50804338  0.42398568  0.38716682  1.0
  Ti  Ti1335  1  0.50804338  0.59065235  0.38716682  1.0
  Ti  Ti1336  1  0.50804338  0.75731902  0.38716682  1.0
  Ti  Ti1337  1  0.50804338  0.92398568  0.38716682  1.0
  Ti  Ti1338  1  0.59137672  0.09065235  0.38716682  1.0
  Ti  Ti1339  1  0.59137672  0.25731902  0.38716682  1.0
  Ti  Ti1340  1  0.59137672  0.42398568  0.38716682  1.0
  Ti  Ti1341  1  0.59137672  0.59065235  0.38716682  1.0
  Ti  Ti1342  1  0.59137672  0.75731902  0.38716682  1.0
  Ti  Ti1343  1  0.59137672  0.92398568  0.38716682  1.0
  Ti  Ti1344  1  0.67471005  0.09065235  0.38716682  1.0
  Ti  Ti1345  1  0.67471005  0.25731902  0.38716682  1.0
  Ti  Ti1346  1  0.67471005  0.42398568  0.38716682  1.0
  Ti  Ti1347  1  0.67471005  0.59065235  0.38716682  1.0
  Ti  Ti1348  1  0.67471005  0.75731902  0.38716682  1.0
  Ti  Ti1349  1  0.67471005  0.92398568  0.38716682  1.0
  Ti  Ti1350  1  0.75804338  0.09065235  0.38716682  1.0
  Ti  Ti1351  1  0.75804338  0.25731902  0.38716682  1.0
  Ti  Ti1352  1  0.75804338  0.42398568  0.38716682  1.0
  Ti  Ti1353  1  0.75804338  0.59065235  0.38716682  1.0
  Ti  Ti1354  1  0.75804338  0.75731902  0.38716682  1.0
  Ti  Ti1355  1  0.75804338  0.92398568  0.38716682  1.0
  Ti  Ti1356  1  0.84137672  0.09065235  0.38716682  1.0
  Ti  Ti1357  1  0.84137672  0.25731902  0.38716682  1.0
  Ti  Ti1358  1  0.84137672  0.42398568  0.38716682  1.0
  Ti  Ti1359  1  0.84137672  0.59065235  0.38716682  1.0
  Ti  Ti1360  1  0.84137672  0.75731902  0.38716682  1.0
  Ti  Ti1361  1  0.84137672  0.92398568  0.38716682  1.0
  Ti  Ti1362  1  0.92471005  0.09065235  0.38716682  1.0
  Ti  Ti1363  1  0.92471005  0.25731902  0.38716682  1.0
  Ti  Ti1364  1  0.92471005  0.42398568  0.38716682  1.0
  Ti  Ti1365  1  0.92471005  0.59065235  0.38716682  1.0
  Ti  Ti1366  1  0.92471005  0.75731902  0.38716682  1.0
  Ti  Ti1367  1  0.92471005  0.92398568  0.38716682  1.0
  Ti  Ti1368  1  0.06756719  0.07874759  0.45859539  1.0
  Ti  Ti1369  1  0.06756719  0.24541425  0.45859539  1.0
  Ti  Ti1370  1  0.06756719  0.41208092  0.45859539  1.0
  Ti  Ti1371  1  0.06756719  0.57874759  0.45859539  1.0
  Ti  Ti1372  1  0.06756719  0.74541425  0.45859539  1.0
  Ti  Ti1373  1  0.06756719  0.91208092  0.45859539  1.0
  Ti  Ti1374  1  0.15090053  0.07874759  0.45859539  1.0
  Ti  Ti1375  1  0.15090053  0.24541425  0.45859539  1.0
  Ti  Ti1376  1  0.15090053  0.41208092  0.45859539  1.0
  Ti  Ti1377  1  0.15090053  0.57874759  0.45859539  1.0
  Ti  Ti1378  1  0.15090053  0.74541425  0.45859539  1.0
  Ti  Ti1379  1  0.15090053  0.91208092  0.45859539  1.0
  Ti  Ti1380  1  0.23423386  0.07874759  0.45859539  1.0
  Ti  Ti1381  1  0.23423386  0.24541425  0.45859539  1.0
  Ti  Ti1382  1  0.23423386  0.41208092  0.45859539  1.0
  Ti  Ti1383  1  0.23423386  0.57874759  0.45859539  1.0
  Ti  Ti1384  1  0.23423386  0.74541425  0.45859539  1.0
  Ti  Ti1385  1  0.23423386  0.91208092  0.45859539  1.0
  Ti  Ti1386  1  0.31756719  0.07874759  0.45859539  1.0
  Ti  Ti1387  1  0.31756719  0.24541425  0.45859539  1.0
  Ti  Ti1388  1  0.31756719  0.41208092  0.45859539  1.0
  Ti  Ti1389  1  0.31756719  0.57874759  0.45859539  1.0
  Ti  Ti1390  1  0.31756719  0.74541425  0.45859539  1.0
  Ti  Ti1391  1  0.31756719  0.91208092  0.45859539  1.0
  Ti  Ti1392  1  0.40090053  0.07874759  0.45859539  1.0
  Ti  Ti1393  1  0.40090053  0.24541425  0.45859539  1.0
  Ti  Ti1394  1  0.40090053  0.41208092  0.45859539  1.0
  Ti  Ti1395  1  0.40090053  0.57874759  0.45859539  1.0
  Ti  Ti1396  1  0.40090053  0.74541425  0.45859539  1.0
  Ti  Ti1397  1  0.40090053  0.91208092  0.45859539  1.0
  Ti  Ti1398  1  0.48423386  0.07874759  0.45859539  1.0
  Ti  Ti1399  1  0.48423386  0.24541425  0.45859539  1.0
  Ti  Ti1400  1  0.48423386  0.41208092  0.45859539  1.0
  Ti  Ti1401  1  0.48423386  0.57874759  0.45859539  1.0
  Ti  Ti1402  1  0.48423386  0.74541425  0.45859539  1.0
  Ti  Ti1403  1  0.48423386  0.91208092  0.45859539  1.0
  Ti  Ti1404  1  0.56756719  0.07874759  0.45859539  1.0
  Ti  Ti1405  1  0.56756719  0.24541425  0.45859539  1.0
  Ti  Ti1406  1  0.56756719  0.41208092  0.45859539  1.0
  Ti  Ti1407  1  0.56756719  0.57874759  0.45859539  1.0
  Ti  Ti1408  1  0.56756719  0.74541425  0.45859539  1.0
  Ti  Ti1409  1  0.56756719  0.91208092  0.45859539  1.0
  Ti  Ti1410  1  0.65090053  0.07874759  0.45859539  1.0
  Ti  Ti1411  1  0.65090053  0.24541425  0.45859539  1.0
  Ti  Ti1412  1  0.65090053  0.41208092  0.45859539  1.0
  Ti  Ti1413  1  0.65090053  0.57874759  0.45859539  1.0
  Ti  Ti1414  1  0.65090053  0.74541425  0.45859539  1.0
  Ti  Ti1415  1  0.65090053  0.91208092  0.45859539  1.0
  Ti  Ti1416  1  0.73423386  0.07874759  0.45859539  1.0
  Ti  Ti1417  1  0.73423386  0.24541425  0.45859539  1.0
  Ti  Ti1418  1  0.73423386  0.41208092  0.45859539  1.0
  Ti  Ti1419  1  0.73423386  0.57874759  0.45859539  1.0
  Ti  Ti1420  1  0.73423386  0.74541425  0.45859539  1.0
  Ti  Ti1421  1  0.73423386  0.91208092  0.45859539  1.0
  Ti  Ti1422  1  0.81756719  0.07874759  0.45859539  1.0
  Ti  Ti1423  1  0.81756719  0.24541425  0.45859539  1.0
  Ti  Ti1424  1  0.81756719  0.41208092  0.45859539  1.0
  Ti  Ti1425  1  0.81756719  0.57874759  0.45859539  1.0
  Ti  Ti1426  1  0.81756719  0.74541425  0.45859539  1.0
  Ti  Ti1427  1  0.81756719  0.91208092  0.45859539  1.0
  Ti  Ti1428  1  0.90090053  0.07874759  0.45859539  1.0
  Ti  Ti1429  1  0.90090053  0.24541425  0.45859539  1.0
  Ti  Ti1430  1  0.90090053  0.41208092  0.45859539  1.0
  Ti  Ti1431  1  0.90090053  0.57874759  0.45859539  1.0
  Ti  Ti1432  1  0.90090053  0.74541425  0.45859539  1.0
  Ti  Ti1433  1  0.90090053  0.91208092  0.45859539  1.0
  Ti  Ti1434  1  0.98423386  0.07874759  0.45859539  1.0
  Ti  Ti1435  1  0.98423386  0.24541425  0.45859539  1.0
  Ti  Ti1436  1  0.98423386  0.41208092  0.45859539  1.0
  Ti  Ti1437  1  0.98423386  0.57874759  0.45859539  1.0
  Ti  Ti1438  1  0.98423386  0.74541425  0.45859539  1.0
  Ti  Ti1439  1  0.98423386  0.91208092  0.45859539  1.0
  Ti  Ti1440  1  0.01329303  0.16459988  0.36562176  1.0
  Ti  Ti1441  1  0.01329303  0.33126654  0.36562176  1.0
  Ti  Ti1442  1  0.01329303  0.49793321  0.36562176  1.0
  Ti  Ti1443  1  0.01329303  0.66459988  0.36562176  1.0
  Ti  Ti1444  1  0.01329303  0.83126654  0.36562176  1.0
  Ti  Ti1445  1  0.01329303  0.99793321  0.36562176  1.0
  Ti  Ti1446  1  0.09662636  0.16459988  0.36562176  1.0
  Ti  Ti1447  1  0.09662636  0.33126654  0.36562176  1.0
  Ti  Ti1448  1  0.09662636  0.49793321  0.36562176  1.0
  Ti  Ti1449  1  0.09662636  0.66459988  0.36562176  1.0
  Ti  Ti1450  1  0.09662636  0.83126654  0.36562176  1.0
  Ti  Ti1451  1  0.09662636  0.99793321  0.36562176  1.0
  Ti  Ti1452  1  0.17995969  0.16459988  0.36562176  1.0
  Ti  Ti1453  1  0.17995969  0.33126654  0.36562176  1.0
  Ti  Ti1454  1  0.17995969  0.49793321  0.36562176  1.0
  Ti  Ti1455  1  0.17995969  0.66459988  0.36562176  1.0
  Ti  Ti1456  1  0.17995969  0.83126654  0.36562176  1.0
  Ti  Ti1457  1  0.17995969  0.99793321  0.36562176  1.0
  Ti  Ti1458  1  0.26329303  0.16459988  0.36562176  1.0
  Ti  Ti1459  1  0.26329303  0.33126654  0.36562176  1.0
  Ti  Ti1460  1  0.26329303  0.49793321  0.36562176  1.0
  Ti  Ti1461  1  0.26329303  0.66459988  0.36562176  1.0
  Ti  Ti1462  1  0.26329303  0.83126654  0.36562176  1.0
  Ti  Ti1463  1  0.26329303  0.99793321  0.36562176  1.0
  Ti  Ti1464  1  0.34662636  0.16459988  0.36562176  1.0
  Ti  Ti1465  1  0.34662636  0.33126654  0.36562176  1.0
  Ti  Ti1466  1  0.34662636  0.49793321  0.36562176  1.0
  Ti  Ti1467  1  0.34662636  0.66459988  0.36562176  1.0
  Ti  Ti1468  1  0.34662636  0.83126654  0.36562176  1.0
  Ti  Ti1469  1  0.34662636  0.99793321  0.36562176  1.0
  Ti  Ti1470  1  0.42995969  0.16459988  0.36562176  1.0
  Ti  Ti1471  1  0.42995969  0.33126654  0.36562176  1.0
  Ti  Ti1472  1  0.42995969  0.49793321  0.36562176  1.0
  Ti  Ti1473  1  0.42995969  0.66459988  0.36562176  1.0
  Ti  Ti1474  1  0.42995969  0.83126654  0.36562176  1.0
  Ti  Ti1475  1  0.42995969  0.99793321  0.36562176  1.0
  Ti  Ti1476  1  0.51329303  0.16459988  0.36562176  1.0
  Ti  Ti1477  1  0.51329303  0.33126654  0.36562176  1.0
  Ti  Ti1478  1  0.51329303  0.49793321  0.36562176  1.0
  Ti  Ti1479  1  0.51329303  0.66459988  0.36562176  1.0
  Ti  Ti1480  1  0.51329303  0.83126654  0.36562176  1.0
  Ti  Ti1481  1  0.51329303  0.99793321  0.36562176  1.0
  Ti  Ti1482  1  0.59662636  0.16459988  0.36562176  1.0
  Ti  Ti1483  1  0.59662636  0.33126654  0.36562176  1.0
  Ti  Ti1484  1  0.59662636  0.49793321  0.36562176  1.0
  Ti  Ti1485  1  0.59662636  0.66459988  0.36562176  1.0
  Ti  Ti1486  1  0.59662636  0.83126654  0.36562176  1.0
  Ti  Ti1487  1  0.59662636  0.99793321  0.36562176  1.0
  Ti  Ti1488  1  0.67995969  0.16459988  0.36562176  1.0
  Ti  Ti1489  1  0.67995969  0.33126654  0.36562176  1.0
  Ti  Ti1490  1  0.67995969  0.49793321  0.36562176  1.0
  Ti  Ti1491  1  0.67995969  0.66459988  0.36562176  1.0
  Ti  Ti1492  1  0.67995969  0.83126654  0.36562176  1.0
  Ti  Ti1493  1  0.67995969  0.99793321  0.36562176  1.0
  Ti  Ti1494  1  0.76329303  0.16459988  0.36562176  1.0
  Ti  Ti1495  1  0.76329303  0.33126654  0.36562176  1.0
  Ti  Ti1496  1  0.76329303  0.49793321  0.36562176  1.0
  Ti  Ti1497  1  0.76329303  0.66459988  0.36562176  1.0
  Ti  Ti1498  1  0.76329303  0.83126654  0.36562176  1.0
  Ti  Ti1499  1  0.76329303  0.99793321  0.36562176  1.0
  Ti  Ti1500  1  0.84662636  0.16459988  0.36562176  1.0
  Ti  Ti1501  1  0.84662636  0.33126654  0.36562176  1.0
  Ti  Ti1502  1  0.84662636  0.49793321  0.36562176  1.0
  Ti  Ti1503  1  0.84662636  0.66459988  0.36562176  1.0
  Ti  Ti1504  1  0.84662636  0.83126654  0.36562176  1.0
  Ti  Ti1505  1  0.84662636  0.99793321  0.36562176  1.0
  Ti  Ti1506  1  0.92995969  0.16459988  0.36562176  1.0
  Ti  Ti1507  1  0.92995969  0.33126654  0.36562176  1.0
  Ti  Ti1508  1  0.92995969  0.49793321  0.36562176  1.0
  Ti  Ti1509  1  0.92995969  0.66459988  0.36562176  1.0
  Ti  Ti1510  1  0.92995969  0.83126654  0.36562176  1.0
  Ti  Ti1511  1  0.92995969  0.99793321  0.36562176  1.0
  Ti  Ti1512  1  0.07281684  0.15269512  0.43705033  1.0
  Ti  Ti1513  1  0.07281684  0.31936178  0.43705033  1.0
  Ti  Ti1514  1  0.07281684  0.48602845  0.43705033  1.0
  Ti  Ti1515  1  0.07281684  0.65269512  0.43705033  1.0
  Ti  Ti1516  1  0.07281684  0.81936178  0.43705033  1.0
  Ti  Ti1517  1  0.07281684  0.98602845  0.43705033  1.0
  Ti  Ti1518  1  0.15615017  0.15269512  0.43705033  1.0
  Ti  Ti1519  1  0.15615017  0.31936178  0.43705033  1.0
  Ti  Ti1520  1  0.15615017  0.48602845  0.43705033  1.0
  Ti  Ti1521  1  0.15615017  0.65269512  0.43705033  1.0
  Ti  Ti1522  1  0.15615017  0.81936178  0.43705033  1.0
  Ti  Ti1523  1  0.15615017  0.98602845  0.43705033  1.0
  Ti  Ti1524  1  0.23948350  0.15269512  0.43705033  1.0
  Ti  Ti1525  1  0.23948350  0.31936178  0.43705033  1.0
  Ti  Ti1526  1  0.23948350  0.48602845  0.43705033  1.0
  Ti  Ti1527  1  0.23948350  0.65269512  0.43705033  1.0
  Ti  Ti1528  1  0.23948350  0.81936178  0.43705033  1.0
  Ti  Ti1529  1  0.23948350  0.98602845  0.43705033  1.0
  Ti  Ti1530  1  0.32281684  0.15269512  0.43705033  1.0
  Ti  Ti1531  1  0.32281684  0.31936178  0.43705033  1.0
  Ti  Ti1532  1  0.32281684  0.48602845  0.43705033  1.0
  Ti  Ti1533  1  0.32281684  0.65269512  0.43705033  1.0
  Ti  Ti1534  1  0.32281684  0.81936178  0.43705033  1.0
  Ti  Ti1535  1  0.32281684  0.98602845  0.43705033  1.0
  Ti  Ti1536  1  0.40615017  0.15269512  0.43705033  1.0
  Ti  Ti1537  1  0.40615017  0.31936178  0.43705033  1.0
  Ti  Ti1538  1  0.40615017  0.48602845  0.43705033  1.0
  Ti  Ti1539  1  0.40615017  0.65269512  0.43705033  1.0
  Ti  Ti1540  1  0.40615017  0.81936178  0.43705033  1.0
  Ti  Ti1541  1  0.40615017  0.98602845  0.43705033  1.0
  Ti  Ti1542  1  0.48948350  0.15269512  0.43705033  1.0
  Ti  Ti1543  1  0.48948350  0.31936178  0.43705033  1.0
  Ti  Ti1544  1  0.48948350  0.48602845  0.43705033  1.0
  Ti  Ti1545  1  0.48948350  0.65269512  0.43705033  1.0
  Ti  Ti1546  1  0.48948350  0.81936178  0.43705033  1.0
  Ti  Ti1547  1  0.48948350  0.98602845  0.43705033  1.0
  Ti  Ti1548  1  0.57281684  0.15269512  0.43705033  1.0
  Ti  Ti1549  1  0.57281684  0.31936178  0.43705033  1.0
  Ti  Ti1550  1  0.57281684  0.48602845  0.43705033  1.0
  Ti  Ti1551  1  0.57281684  0.65269512  0.43705033  1.0
  Ti  Ti1552  1  0.57281684  0.81936178  0.43705033  1.0
  Ti  Ti1553  1  0.57281684  0.98602845  0.43705033  1.0
  Ti  Ti1554  1  0.65615017  0.15269512  0.43705033  1.0
  Ti  Ti1555  1  0.65615017  0.31936178  0.43705033  1.0
  Ti  Ti1556  1  0.65615017  0.48602845  0.43705033  1.0
  Ti  Ti1557  1  0.65615017  0.65269512  0.43705033  1.0
  Ti  Ti1558  1  0.65615017  0.81936178  0.43705033  1.0
  Ti  Ti1559  1  0.65615017  0.98602845  0.43705033  1.0
  Ti  Ti1560  1  0.73948350  0.15269512  0.43705033  1.0
  Ti  Ti1561  1  0.73948350  0.31936178  0.43705033  1.0
  Ti  Ti1562  1  0.73948350  0.48602845  0.43705033  1.0
  Ti  Ti1563  1  0.73948350  0.65269512  0.43705033  1.0
  Ti  Ti1564  1  0.73948350  0.81936178  0.43705033  1.0
  Ti  Ti1565  1  0.73948350  0.98602845  0.43705033  1.0
  Ti  Ti1566  1  0.82281684  0.15269512  0.43705033  1.0
  Ti  Ti1567  1  0.82281684  0.31936178  0.43705033  1.0
  Ti  Ti1568  1  0.82281684  0.48602845  0.43705033  1.0
  Ti  Ti1569  1  0.82281684  0.65269512  0.43705033  1.0
  Ti  Ti1570  1  0.82281684  0.81936178  0.43705033  1.0
  Ti  Ti1571  1  0.82281684  0.98602845  0.43705033  1.0
  Ti  Ti1572  1  0.90615017  0.15269512  0.43705033  1.0
  Ti  Ti1573  1  0.90615017  0.31936178  0.43705033  1.0
  Ti  Ti1574  1  0.90615017  0.48602845  0.43705033  1.0
  Ti  Ti1575  1  0.90615017  0.65269512  0.43705033  1.0
  Ti  Ti1576  1  0.90615017  0.81936178  0.43705033  1.0
  Ti  Ti1577  1  0.90615017  0.98602845  0.43705033  1.0
  Ti  Ti1578  1  0.98948350  0.15269512  0.43705033  1.0
  Ti  Ti1579  1  0.98948350  0.31936178  0.43705033  1.0
  Ti  Ti1580  1  0.98948350  0.48602845  0.43705033  1.0
  Ti  Ti1581  1  0.98948350  0.65269512  0.43705033  1.0
  Ti  Ti1582  1  0.98948350  0.81936178  0.43705033  1.0
  Ti  Ti1583  1  0.98948350  0.98602845  0.43705033  1.0
  Ti  Ti1584  1  0.01248524  0.04440647  0.37601998  1.0
  Ti  Ti1585  1  0.01248524  0.21107314  0.37601998  1.0
  Ti  Ti1586  1  0.01248524  0.37773981  0.37601998  1.0
  Ti  Ti1587  1  0.01248524  0.54440647  0.37601998  1.0
  Ti  Ti1588  1  0.01248524  0.71107314  0.37601998  1.0
  Ti  Ti1589  1  0.01248524  0.87773981  0.37601998  1.0
  Ti  Ti1590  1  0.09581857  0.04440647  0.37601998  1.0
  Ti  Ti1591  1  0.09581857  0.21107314  0.37601998  1.0
  Ti  Ti1592  1  0.09581857  0.37773981  0.37601998  1.0
  Ti  Ti1593  1  0.09581857  0.54440647  0.37601998  1.0
  Ti  Ti1594  1  0.09581857  0.71107314  0.37601998  1.0
  Ti  Ti1595  1  0.09581857  0.87773981  0.37601998  1.0
  Ti  Ti1596  1  0.17915190  0.04440647  0.37601998  1.0
  Ti  Ti1597  1  0.17915190  0.21107314  0.37601998  1.0
  Ti  Ti1598  1  0.17915190  0.37773981  0.37601998  1.0
  Ti  Ti1599  1  0.17915190  0.54440647  0.37601998  1.0
  Ti  Ti1600  1  0.17915190  0.71107314  0.37601998  1.0
  Ti  Ti1601  1  0.17915190  0.87773981  0.37601998  1.0
  Ti  Ti1602  1  0.26248524  0.04440647  0.37601998  1.0
  Ti  Ti1603  1  0.26248524  0.21107314  0.37601998  1.0
  Ti  Ti1604  1  0.26248524  0.37773981  0.37601998  1.0
  Ti  Ti1605  1  0.26248524  0.54440647  0.37601998  1.0
  Ti  Ti1606  1  0.26248524  0.71107314  0.37601998  1.0
  Ti  Ti1607  1  0.26248524  0.87773981  0.37601998  1.0
  Ti  Ti1608  1  0.34581857  0.04440647  0.37601998  1.0
  Ti  Ti1609  1  0.34581857  0.21107314  0.37601998  1.0
  Ti  Ti1610  1  0.34581857  0.37773981  0.37601998  1.0
  Ti  Ti1611  1  0.34581857  0.54440647  0.37601998  1.0
  Ti  Ti1612  1  0.34581857  0.71107314  0.37601998  1.0
  Ti  Ti1613  1  0.34581857  0.87773981  0.37601998  1.0
  Ti  Ti1614  1  0.42915190  0.04440647  0.37601998  1.0
  Ti  Ti1615  1  0.42915190  0.21107314  0.37601998  1.0
  Ti  Ti1616  1  0.42915190  0.37773981  0.37601998  1.0
  Ti  Ti1617  1  0.42915190  0.54440647  0.37601998  1.0
  Ti  Ti1618  1  0.42915190  0.71107314  0.37601998  1.0
  Ti  Ti1619  1  0.42915190  0.87773981  0.37601998  1.0
  Ti  Ti1620  1  0.51248524  0.04440647  0.37601998  1.0
  Ti  Ti1621  1  0.51248524  0.21107314  0.37601998  1.0
  Ti  Ti1622  1  0.51248524  0.37773981  0.37601998  1.0
  Ti  Ti1623  1  0.51248524  0.54440647  0.37601998  1.0
  Ti  Ti1624  1  0.51248524  0.71107314  0.37601998  1.0
  Ti  Ti1625  1  0.51248524  0.87773981  0.37601998  1.0
  Ti  Ti1626  1  0.59581857  0.04440647  0.37601998  1.0
  Ti  Ti1627  1  0.59581857  0.21107314  0.37601998  1.0
  Ti  Ti1628  1  0.59581857  0.37773981  0.37601998  1.0
  Ti  Ti1629  1  0.59581857  0.54440647  0.37601998  1.0
  Ti  Ti1630  1  0.59581857  0.71107314  0.37601998  1.0
  Ti  Ti1631  1  0.59581857  0.87773981  0.37601998  1.0
  Ti  Ti1632  1  0.67915190  0.04440647  0.37601998  1.0
  Ti  Ti1633  1  0.67915190  0.21107314  0.37601998  1.0
  Ti  Ti1634  1  0.67915190  0.37773981  0.37601998  1.0
  Ti  Ti1635  1  0.67915190  0.54440647  0.37601998  1.0
  Ti  Ti1636  1  0.67915190  0.71107314  0.37601998  1.0
  Ti  Ti1637  1  0.67915190  0.87773981  0.37601998  1.0
  Ti  Ti1638  1  0.76248524  0.04440647  0.37601998  1.0
  Ti  Ti1639  1  0.76248524  0.21107314  0.37601998  1.0
  Ti  Ti1640  1  0.76248524  0.37773981  0.37601998  1.0
  Ti  Ti1641  1  0.76248524  0.54440647  0.37601998  1.0
  Ti  Ti1642  1  0.76248524  0.71107314  0.37601998  1.0
  Ti  Ti1643  1  0.76248524  0.87773981  0.37601998  1.0
  Ti  Ti1644  1  0.84581857  0.04440647  0.37601998  1.0
  Ti  Ti1645  1  0.84581857  0.21107314  0.37601998  1.0
  Ti  Ti1646  1  0.84581857  0.37773981  0.37601998  1.0
  Ti  Ti1647  1  0.84581857  0.54440647  0.37601998  1.0
  Ti  Ti1648  1  0.84581857  0.71107314  0.37601998  1.0
  Ti  Ti1649  1  0.84581857  0.87773981  0.37601998  1.0
  Ti  Ti1650  1  0.92915190  0.04440647  0.37601998  1.0
  Ti  Ti1651  1  0.92915190  0.21107314  0.37601998  1.0
  Ti  Ti1652  1  0.92915190  0.37773981  0.37601998  1.0
  Ti  Ti1653  1  0.92915190  0.54440647  0.37601998  1.0
  Ti  Ti1654  1  0.92915190  0.71107314  0.37601998  1.0
  Ti  Ti1655  1  0.92915190  0.87773981  0.37601998  1.0
  Ti  Ti1656  1  0.07200905  0.03250171  0.44744855  1.0
  Ti  Ti1657  1  0.07200905  0.19916838  0.44744855  1.0
  Ti  Ti1658  1  0.07200905  0.36583505  0.44744855  1.0
  Ti  Ti1659  1  0.07200905  0.53250171  0.44744855  1.0
  Ti  Ti1660  1  0.07200905  0.69916838  0.44744855  1.0
  Ti  Ti1661  1  0.07200905  0.86583505  0.44744855  1.0
  Ti  Ti1662  1  0.15534238  0.03250171  0.44744855  1.0
  Ti  Ti1663  1  0.15534238  0.19916838  0.44744855  1.0
  Ti  Ti1664  1  0.15534238  0.36583505  0.44744855  1.0
  Ti  Ti1665  1  0.15534238  0.53250171  0.44744855  1.0
  Ti  Ti1666  1  0.15534238  0.69916838  0.44744855  1.0
  Ti  Ti1667  1  0.15534238  0.86583505  0.44744855  1.0
  Ti  Ti1668  1  0.23867571  0.03250171  0.44744855  1.0
  Ti  Ti1669  1  0.23867571  0.19916838  0.44744855  1.0
  Ti  Ti1670  1  0.23867571  0.36583505  0.44744855  1.0
  Ti  Ti1671  1  0.23867571  0.53250171  0.44744855  1.0
  Ti  Ti1672  1  0.23867571  0.69916838  0.44744855  1.0
  Ti  Ti1673  1  0.23867571  0.86583505  0.44744855  1.0
  Ti  Ti1674  1  0.32200905  0.03250171  0.44744855  1.0
  Ti  Ti1675  1  0.32200905  0.19916838  0.44744855  1.0
  Ti  Ti1676  1  0.32200905  0.36583505  0.44744855  1.0
  Ti  Ti1677  1  0.32200905  0.53250171  0.44744855  1.0
  Ti  Ti1678  1  0.32200905  0.69916838  0.44744855  1.0
  Ti  Ti1679  1  0.32200905  0.86583505  0.44744855  1.0
  Ti  Ti1680  1  0.40534238  0.03250171  0.44744855  1.0
  Ti  Ti1681  1  0.40534238  0.19916838  0.44744855  1.0
  Ti  Ti1682  1  0.40534238  0.36583505  0.44744855  1.0
  Ti  Ti1683  1  0.40534238  0.53250171  0.44744855  1.0
  Ti  Ti1684  1  0.40534238  0.69916838  0.44744855  1.0
  Ti  Ti1685  1  0.40534238  0.86583505  0.44744855  1.0
  Ti  Ti1686  1  0.48867571  0.03250171  0.44744855  1.0
  Ti  Ti1687  1  0.48867571  0.19916838  0.44744855  1.0
  Ti  Ti1688  1  0.48867571  0.36583505  0.44744855  1.0
  Ti  Ti1689  1  0.48867571  0.53250171  0.44744855  1.0
  Ti  Ti1690  1  0.48867571  0.69916838  0.44744855  1.0
  Ti  Ti1691  1  0.48867571  0.86583505  0.44744855  1.0
  Ti  Ti1692  1  0.57200905  0.03250171  0.44744855  1.0
  Ti  Ti1693  1  0.57200905  0.19916838  0.44744855  1.0
  Ti  Ti1694  1  0.57200905  0.36583505  0.44744855  1.0
  Ti  Ti1695  1  0.57200905  0.53250171  0.44744855  1.0
  Ti  Ti1696  1  0.57200905  0.69916838  0.44744855  1.0
  Ti  Ti1697  1  0.57200905  0.86583505  0.44744855  1.0
  Ti  Ti1698  1  0.65534238  0.03250171  0.44744855  1.0
  Ti  Ti1699  1  0.65534238  0.19916838  0.44744855  1.0
  Ti  Ti1700  1  0.65534238  0.36583505  0.44744855  1.0
  Ti  Ti1701  1  0.65534238  0.53250171  0.44744855  1.0
  Ti  Ti1702  1  0.65534238  0.69916838  0.44744855  1.0
  Ti  Ti1703  1  0.65534238  0.86583505  0.44744855  1.0
  Ti  Ti1704  1  0.73867571  0.03250171  0.44744855  1.0
  Ti  Ti1705  1  0.73867571  0.19916838  0.44744855  1.0
  Ti  Ti1706  1  0.73867571  0.36583505  0.44744855  1.0
  Ti  Ti1707  1  0.73867571  0.53250171  0.44744855  1.0
  Ti  Ti1708  1  0.73867571  0.69916838  0.44744855  1.0
  Ti  Ti1709  1  0.73867571  0.86583505  0.44744855  1.0
  Ti  Ti1710  1  0.82200905  0.03250171  0.44744855  1.0
  Ti  Ti1711  1  0.82200905  0.19916838  0.44744855  1.0
  Ti  Ti1712  1  0.82200905  0.36583505  0.44744855  1.0
  Ti  Ti1713  1  0.82200905  0.53250171  0.44744855  1.0
  Ti  Ti1714  1  0.82200905  0.69916838  0.44744855  1.0
  Ti  Ti1715  1  0.82200905  0.86583505  0.44744855  1.0
  Ti  Ti1716  1  0.90534238  0.03250171  0.44744855  1.0
  Ti  Ti1717  1  0.90534238  0.19916838  0.44744855  1.0
  Ti  Ti1718  1  0.90534238  0.36583505  0.44744855  1.0
  Ti  Ti1719  1  0.90534238  0.53250171  0.44744855  1.0
  Ti  Ti1720  1  0.90534238  0.69916838  0.44744855  1.0
  Ti  Ti1721  1  0.90534238  0.86583505  0.44744855  1.0
  Ti  Ti1722  1  0.98867571  0.03250171  0.44744855  1.0
  Ti  Ti1723  1  0.98867571  0.19916838  0.44744855  1.0
  Ti  Ti1724  1  0.98867571  0.36583505  0.44744855  1.0
  Ti  Ti1725  1  0.98867571  0.53250171  0.44744855  1.0
  Ti  Ti1726  1  0.98867571  0.69916838  0.44744855  1.0
  Ti  Ti1727  1  0.98867571  0.86583505  0.44744855  1.0
  Ti  Ti1728  1  0.05929475  0.14477377  0.36002278  1.0
  Ti  Ti1729  1  0.05929475  0.31144044  0.36002278  1.0
  Ti  Ti1730  1  0.05929475  0.47810711  0.36002278  1.0
  Ti  Ti1731  1  0.05929475  0.64477377  0.36002278  1.0
  Ti  Ti1732  1  0.05929475  0.81144044  0.36002278  1.0
  Ti  Ti1733  1  0.05929475  0.97810711  0.36002278  1.0
  Ti  Ti1734  1  0.14262808  0.14477377  0.36002278  1.0
  Ti  Ti1735  1  0.14262808  0.31144044  0.36002278  1.0
  Ti  Ti1736  1  0.14262808  0.47810711  0.36002278  1.0
  Ti  Ti1737  1  0.14262808  0.64477377  0.36002278  1.0
  Ti  Ti1738  1  0.14262808  0.81144044  0.36002278  1.0
  Ti  Ti1739  1  0.14262808  0.97810711  0.36002278  1.0
  Ti  Ti1740  1  0.22596142  0.14477377  0.36002278  1.0
  Ti  Ti1741  1  0.22596142  0.31144044  0.36002278  1.0
  Ti  Ti1742  1  0.22596142  0.47810711  0.36002278  1.0
  Ti  Ti1743  1  0.22596142  0.64477377  0.36002278  1.0
  Ti  Ti1744  1  0.22596142  0.81144044  0.36002278  1.0
  Ti  Ti1745  1  0.22596142  0.97810711  0.36002278  1.0
  Ti  Ti1746  1  0.30929475  0.14477377  0.36002278  1.0
  Ti  Ti1747  1  0.30929475  0.31144044  0.36002278  1.0
  Ti  Ti1748  1  0.30929475  0.47810711  0.36002278  1.0
  Ti  Ti1749  1  0.30929475  0.64477377  0.36002278  1.0
  Ti  Ti1750  1  0.30929475  0.81144044  0.36002278  1.0
  Ti  Ti1751  1  0.30929475  0.97810711  0.36002278  1.0
  Ti  Ti1752  1  0.39262808  0.14477377  0.36002278  1.0
  Ti  Ti1753  1  0.39262808  0.31144044  0.36002278  1.0
  Ti  Ti1754  1  0.39262808  0.47810711  0.36002278  1.0
  Ti  Ti1755  1  0.39262808  0.64477377  0.36002278  1.0
  Ti  Ti1756  1  0.39262808  0.81144044  0.36002278  1.0
  Ti  Ti1757  1  0.39262808  0.97810711  0.36002278  1.0
  Ti  Ti1758  1  0.47596142  0.14477377  0.36002278  1.0
  Ti  Ti1759  1  0.47596142  0.31144044  0.36002278  1.0
  Ti  Ti1760  1  0.47596142  0.47810711  0.36002278  1.0
  Ti  Ti1761  1  0.47596142  0.64477377  0.36002278  1.0
  Ti  Ti1762  1  0.47596142  0.81144044  0.36002278  1.0
  Ti  Ti1763  1  0.47596142  0.97810711  0.36002278  1.0
  Ti  Ti1764  1  0.55929475  0.14477377  0.36002278  1.0
  Ti  Ti1765  1  0.55929475  0.31144044  0.36002278  1.0
  Ti  Ti1766  1  0.55929475  0.47810711  0.36002278  1.0
  Ti  Ti1767  1  0.55929475  0.64477377  0.36002278  1.0
  Ti  Ti1768  1  0.55929475  0.81144044  0.36002278  1.0
  Ti  Ti1769  1  0.55929475  0.97810711  0.36002278  1.0
  Ti  Ti1770  1  0.64262808  0.14477377  0.36002278  1.0
  Ti  Ti1771  1  0.64262808  0.31144044  0.36002278  1.0
  Ti  Ti1772  1  0.64262808  0.47810711  0.36002278  1.0
  Ti  Ti1773  1  0.64262808  0.64477377  0.36002278  1.0
  Ti  Ti1774  1  0.64262808  0.81144044  0.36002278  1.0
  Ti  Ti1775  1  0.64262808  0.97810711  0.36002278  1.0
  Ti  Ti1776  1  0.72596142  0.14477377  0.36002278  1.0
  Ti  Ti1777  1  0.72596142  0.31144044  0.36002278  1.0
  Ti  Ti1778  1  0.72596142  0.47810711  0.36002278  1.0
  Ti  Ti1779  1  0.72596142  0.64477377  0.36002278  1.0
  Ti  Ti1780  1  0.72596142  0.81144044  0.36002278  1.0
  Ti  Ti1781  1  0.72596142  0.97810711  0.36002278  1.0
  Ti  Ti1782  1  0.80929475  0.14477377  0.36002278  1.0
  Ti  Ti1783  1  0.80929475  0.31144044  0.36002278  1.0
  Ti  Ti1784  1  0.80929475  0.47810711  0.36002278  1.0
  Ti  Ti1785  1  0.80929475  0.64477377  0.36002278  1.0
  Ti  Ti1786  1  0.80929475  0.81144044  0.36002278  1.0
  Ti  Ti1787  1  0.80929475  0.97810711  0.36002278  1.0
  Ti  Ti1788  1  0.89262808  0.14477377  0.36002278  1.0
  Ti  Ti1789  1  0.89262808  0.31144044  0.36002278  1.0
  Ti  Ti1790  1  0.89262808  0.47810711  0.36002278  1.0
  Ti  Ti1791  1  0.89262808  0.64477377  0.36002278  1.0
  Ti  Ti1792  1  0.89262808  0.81144044  0.36002278  1.0
  Ti  Ti1793  1  0.89262808  0.97810711  0.36002278  1.0
  Ti  Ti1794  1  0.97596142  0.14477377  0.36002278  1.0
  Ti  Ti1795  1  0.97596142  0.31144044  0.36002278  1.0
  Ti  Ti1796  1  0.97596142  0.47810711  0.36002278  1.0
  Ti  Ti1797  1  0.97596142  0.64477377  0.36002278  1.0
  Ti  Ti1798  1  0.97596142  0.81144044  0.36002278  1.0
  Ti  Ti1799  1  0.97596142  0.97810711  0.36002278  1.0
  Ti  Ti1800  1  0.03548523  0.13286901  0.43145135  1.0
  Ti  Ti1801  1  0.03548523  0.29953568  0.43145135  1.0
  Ti  Ti1802  1  0.03548523  0.46620234  0.43145135  1.0
  Ti  Ti1803  1  0.03548523  0.63286901  0.43145135  1.0
  Ti  Ti1804  1  0.03548523  0.79953568  0.43145135  1.0
  Ti  Ti1805  1  0.03548523  0.96620234  0.43145135  1.0
  Ti  Ti1806  1  0.11881856  0.13286901  0.43145135  1.0
  Ti  Ti1807  1  0.11881856  0.29953568  0.43145135  1.0
  Ti  Ti1808  1  0.11881856  0.46620234  0.43145135  1.0
  Ti  Ti1809  1  0.11881856  0.63286901  0.43145135  1.0
  Ti  Ti1810  1  0.11881856  0.79953568  0.43145135  1.0
  Ti  Ti1811  1  0.11881856  0.96620234  0.43145135  1.0
  Ti  Ti1812  1  0.20215189  0.13286901  0.43145135  1.0
  Ti  Ti1813  1  0.20215189  0.29953568  0.43145135  1.0
  Ti  Ti1814  1  0.20215189  0.46620234  0.43145135  1.0
  Ti  Ti1815  1  0.20215189  0.63286901  0.43145135  1.0
  Ti  Ti1816  1  0.20215189  0.79953568  0.43145135  1.0
  Ti  Ti1817  1  0.20215189  0.96620234  0.43145135  1.0
  Ti  Ti1818  1  0.28548523  0.13286901  0.43145135  1.0
  Ti  Ti1819  1  0.28548523  0.29953568  0.43145135  1.0
  Ti  Ti1820  1  0.28548523  0.46620234  0.43145135  1.0
  Ti  Ti1821  1  0.28548523  0.63286901  0.43145135  1.0
  Ti  Ti1822  1  0.28548523  0.79953568  0.43145135  1.0
  Ti  Ti1823  1  0.28548523  0.96620234  0.43145135  1.0
  Ti  Ti1824  1  0.36881856  0.13286901  0.43145135  1.0
  Ti  Ti1825  1  0.36881856  0.29953568  0.43145135  1.0
  Ti  Ti1826  1  0.36881856  0.46620234  0.43145135  1.0
  Ti  Ti1827  1  0.36881856  0.63286901  0.43145135  1.0
  Ti  Ti1828  1  0.36881856  0.79953568  0.43145135  1.0
  Ti  Ti1829  1  0.36881856  0.96620234  0.43145135  1.0
  Ti  Ti1830  1  0.45215189  0.13286901  0.43145135  1.0
  Ti  Ti1831  1  0.45215189  0.29953568  0.43145135  1.0
  Ti  Ti1832  1  0.45215189  0.46620234  0.43145135  1.0
  Ti  Ti1833  1  0.45215189  0.63286901  0.43145135  1.0
  Ti  Ti1834  1  0.45215189  0.79953568  0.43145135  1.0
  Ti  Ti1835  1  0.45215189  0.96620234  0.43145135  1.0
  Ti  Ti1836  1  0.53548523  0.13286901  0.43145135  1.0
  Ti  Ti1837  1  0.53548523  0.29953568  0.43145135  1.0
  Ti  Ti1838  1  0.53548523  0.46620234  0.43145135  1.0
  Ti  Ti1839  1  0.53548523  0.63286901  0.43145135  1.0
  Ti  Ti1840  1  0.53548523  0.79953568  0.43145135  1.0
  Ti  Ti1841  1  0.53548523  0.96620234  0.43145135  1.0
  Ti  Ti1842  1  0.61881856  0.13286901  0.43145135  1.0
  Ti  Ti1843  1  0.61881856  0.29953568  0.43145135  1.0
  Ti  Ti1844  1  0.61881856  0.46620234  0.43145135  1.0
  Ti  Ti1845  1  0.61881856  0.63286901  0.43145135  1.0
  Ti  Ti1846  1  0.61881856  0.79953568  0.43145135  1.0
  Ti  Ti1847  1  0.61881856  0.96620234  0.43145135  1.0
  Ti  Ti1848  1  0.70215189  0.13286901  0.43145135  1.0
  Ti  Ti1849  1  0.70215189  0.29953568  0.43145135  1.0
  Ti  Ti1850  1  0.70215189  0.46620234  0.43145135  1.0
  Ti  Ti1851  1  0.70215189  0.63286901  0.43145135  1.0
  Ti  Ti1852  1  0.70215189  0.79953568  0.43145135  1.0
  Ti  Ti1853  1  0.70215189  0.96620234  0.43145135  1.0
  Ti  Ti1854  1  0.78548523  0.13286901  0.43145135  1.0
  Ti  Ti1855  1  0.78548523  0.29953568  0.43145135  1.0
  Ti  Ti1856  1  0.78548523  0.46620234  0.43145135  1.0
  Ti  Ti1857  1  0.78548523  0.63286901  0.43145135  1.0
  Ti  Ti1858  1  0.78548523  0.79953568  0.43145135  1.0
  Ti  Ti1859  1  0.78548523  0.96620234  0.43145135  1.0
  Ti  Ti1860  1  0.86881856  0.13286901  0.43145135  1.0
  Ti  Ti1861  1  0.86881856  0.29953568  0.43145135  1.0
  Ti  Ti1862  1  0.86881856  0.46620234  0.43145135  1.0
  Ti  Ti1863  1  0.86881856  0.63286901  0.43145135  1.0
  Ti  Ti1864  1  0.86881856  0.79953568  0.43145135  1.0
  Ti  Ti1865  1  0.86881856  0.96620234  0.43145135  1.0
  Ti  Ti1866  1  0.95215189  0.13286901  0.43145135  1.0
  Ti  Ti1867  1  0.95215189  0.29953568  0.43145135  1.0
  Ti  Ti1868  1  0.95215189  0.46620234  0.43145135  1.0
  Ti  Ti1869  1  0.95215189  0.63286901  0.43145135  1.0
  Ti  Ti1870  1  0.95215189  0.79953568  0.43145135  1.0
  Ti  Ti1871  1  0.95215189  0.96620234  0.43145135  1.0
  Ti  Ti1872  1  0.04770928  0.11424907  0.39289463  1.0
  Ti  Ti1873  1  0.04770928  0.28091573  0.39289463  1.0
  Ti  Ti1874  1  0.04770928  0.44758240  0.39289463  1.0
  Ti  Ti1875  1  0.04770928  0.61424907  0.39289463  1.0
  Ti  Ti1876  1  0.04770928  0.78091573  0.39289463  1.0
  Ti  Ti1877  1  0.04770928  0.94758240  0.39289463  1.0
  Ti  Ti1878  1  0.13104262  0.11424907  0.39289463  1.0
  Ti  Ti1879  1  0.13104262  0.28091573  0.39289463  1.0
  Ti  Ti1880  1  0.13104262  0.44758240  0.39289463  1.0
  Ti  Ti1881  1  0.13104262  0.61424907  0.39289463  1.0
  Ti  Ti1882  1  0.13104262  0.78091573  0.39289463  1.0
  Ti  Ti1883  1  0.13104262  0.94758240  0.39289463  1.0
  Ti  Ti1884  1  0.21437595  0.11424907  0.39289463  1.0
  Ti  Ti1885  1  0.21437595  0.28091573  0.39289463  1.0
  Ti  Ti1886  1  0.21437595  0.44758240  0.39289463  1.0
  Ti  Ti1887  1  0.21437595  0.61424907  0.39289463  1.0
  Ti  Ti1888  1  0.21437595  0.78091573  0.39289463  1.0
  Ti  Ti1889  1  0.21437595  0.94758240  0.39289463  1.0
  Ti  Ti1890  1  0.29770928  0.11424907  0.39289463  1.0
  Ti  Ti1891  1  0.29770928  0.28091573  0.39289463  1.0
  Ti  Ti1892  1  0.29770928  0.44758240  0.39289463  1.0
  Ti  Ti1893  1  0.29770928  0.61424907  0.39289463  1.0
  Ti  Ti1894  1  0.29770928  0.78091573  0.39289463  1.0
  Ti  Ti1895  1  0.29770928  0.94758240  0.39289463  1.0
  Ti  Ti1896  1  0.38104262  0.11424907  0.39289463  1.0
  Ti  Ti1897  1  0.38104262  0.28091573  0.39289463  1.0
  Ti  Ti1898  1  0.38104262  0.44758240  0.39289463  1.0
  Ti  Ti1899  1  0.38104262  0.61424907  0.39289463  1.0
  Ti  Ti1900  1  0.38104262  0.78091573  0.39289463  1.0
  Ti  Ti1901  1  0.38104262  0.94758240  0.39289463  1.0
  Ti  Ti1902  1  0.46437595  0.11424907  0.39289463  1.0
  Ti  Ti1903  1  0.46437595  0.28091573  0.39289463  1.0
  Ti  Ti1904  1  0.46437595  0.44758240  0.39289463  1.0
  Ti  Ti1905  1  0.46437595  0.61424907  0.39289463  1.0
  Ti  Ti1906  1  0.46437595  0.78091573  0.39289463  1.0
  Ti  Ti1907  1  0.46437595  0.94758240  0.39289463  1.0
  Ti  Ti1908  1  0.54770928  0.11424907  0.39289463  1.0
  Ti  Ti1909  1  0.54770928  0.28091573  0.39289463  1.0
  Ti  Ti1910  1  0.54770928  0.44758240  0.39289463  1.0
  Ti  Ti1911  1  0.54770928  0.61424907  0.39289463  1.0
  Ti  Ti1912  1  0.54770928  0.78091573  0.39289463  1.0
  Ti  Ti1913  1  0.54770928  0.94758240  0.39289463  1.0
  Ti  Ti1914  1  0.63104262  0.11424907  0.39289463  1.0
  Ti  Ti1915  1  0.63104262  0.28091573  0.39289463  1.0
  Ti  Ti1916  1  0.63104262  0.44758240  0.39289463  1.0
  Ti  Ti1917  1  0.63104262  0.61424907  0.39289463  1.0
  Ti  Ti1918  1  0.63104262  0.78091573  0.39289463  1.0
  Ti  Ti1919  1  0.63104262  0.94758240  0.39289463  1.0
  Ti  Ti1920  1  0.71437595  0.11424907  0.39289463  1.0
  Ti  Ti1921  1  0.71437595  0.28091573  0.39289463  1.0
  Ti  Ti1922  1  0.71437595  0.44758240  0.39289463  1.0
  Ti  Ti1923  1  0.71437595  0.61424907  0.39289463  1.0
  Ti  Ti1924  1  0.71437595  0.78091573  0.39289463  1.0
  Ti  Ti1925  1  0.71437595  0.94758240  0.39289463  1.0
  Ti  Ti1926  1  0.79770928  0.11424907  0.39289463  1.0
  Ti  Ti1927  1  0.79770928  0.28091573  0.39289463  1.0
  Ti  Ti1928  1  0.79770928  0.44758240  0.39289463  1.0
  Ti  Ti1929  1  0.79770928  0.61424907  0.39289463  1.0
  Ti  Ti1930  1  0.79770928  0.78091573  0.39289463  1.0
  Ti  Ti1931  1  0.79770928  0.94758240  0.39289463  1.0
  Ti  Ti1932  1  0.88104262  0.11424907  0.39289463  1.0
  Ti  Ti1933  1  0.88104262  0.28091573  0.39289463  1.0
  Ti  Ti1934  1  0.88104262  0.44758240  0.39289463  1.0
  Ti  Ti1935  1  0.88104262  0.61424907  0.39289463  1.0
  Ti  Ti1936  1  0.88104262  0.78091573  0.39289463  1.0
  Ti  Ti1937  1  0.88104262  0.94758240  0.39289463  1.0
  Ti  Ti1938  1  0.96437595  0.11424907  0.39289463  1.0
  Ti  Ti1939  1  0.96437595  0.28091573  0.39289463  1.0
  Ti  Ti1940  1  0.96437595  0.44758240  0.39289463  1.0
  Ti  Ti1941  1  0.96437595  0.61424907  0.39289463  1.0
  Ti  Ti1942  1  0.96437595  0.78091573  0.39289463  1.0
  Ti  Ti1943  1  0.96437595  0.94758240  0.39289463  1.0
  Ti  Ti1944  1  0.02389976  0.10234430  0.46432320  1.0
  Ti  Ti1945  1  0.02389976  0.26901097  0.46432320  1.0
  Ti  Ti1946  1  0.02389976  0.43567764  0.46432320  1.0
  Ti  Ti1947  1  0.02389976  0.60234430  0.46432320  1.0
  Ti  Ti1948  1  0.02389976  0.76901097  0.46432320  1.0
  Ti  Ti1949  1  0.02389976  0.93567764  0.46432320  1.0
  Ti  Ti1950  1  0.10723309  0.10234430  0.46432320  1.0
  Ti  Ti1951  1  0.10723309  0.26901097  0.46432320  1.0
  Ti  Ti1952  1  0.10723309  0.43567764  0.46432320  1.0
  Ti  Ti1953  1  0.10723309  0.60234430  0.46432320  1.0
  Ti  Ti1954  1  0.10723309  0.76901097  0.46432320  1.0
  Ti  Ti1955  1  0.10723309  0.93567764  0.46432320  1.0
  Ti  Ti1956  1  0.19056643  0.10234430  0.46432320  1.0
  Ti  Ti1957  1  0.19056643  0.26901097  0.46432320  1.0
  Ti  Ti1958  1  0.19056643  0.43567764  0.46432320  1.0
  Ti  Ti1959  1  0.19056643  0.60234430  0.46432320  1.0
  Ti  Ti1960  1  0.19056643  0.76901097  0.46432320  1.0
  Ti  Ti1961  1  0.19056643  0.93567764  0.46432320  1.0
  Ti  Ti1962  1  0.27389976  0.10234430  0.46432320  1.0
  Ti  Ti1963  1  0.27389976  0.26901097  0.46432320  1.0
  Ti  Ti1964  1  0.27389976  0.43567764  0.46432320  1.0
  Ti  Ti1965  1  0.27389976  0.60234430  0.46432320  1.0
  Ti  Ti1966  1  0.27389976  0.76901097  0.46432320  1.0
  Ti  Ti1967  1  0.27389976  0.93567764  0.46432320  1.0
  Ti  Ti1968  1  0.35723309  0.10234430  0.46432320  1.0
  Ti  Ti1969  1  0.35723309  0.26901097  0.46432320  1.0
  Ti  Ti1970  1  0.35723309  0.43567764  0.46432320  1.0
  Ti  Ti1971  1  0.35723309  0.60234430  0.46432320  1.0
  Ti  Ti1972  1  0.35723309  0.76901097  0.46432320  1.0
  Ti  Ti1973  1  0.35723309  0.93567764  0.46432320  1.0
  Ti  Ti1974  1  0.44056643  0.10234430  0.46432320  1.0
  Ti  Ti1975  1  0.44056643  0.26901097  0.46432320  1.0
  Ti  Ti1976  1  0.44056643  0.43567764  0.46432320  1.0
  Ti  Ti1977  1  0.44056643  0.60234430  0.46432320  1.0
  Ti  Ti1978  1  0.44056643  0.76901097  0.46432320  1.0
  Ti  Ti1979  1  0.44056643  0.93567764  0.46432320  1.0
  Ti  Ti1980  1  0.52389976  0.10234430  0.46432320  1.0
  Ti  Ti1981  1  0.52389976  0.26901097  0.46432320  1.0
  Ti  Ti1982  1  0.52389976  0.43567764  0.46432320  1.0
  Ti  Ti1983  1  0.52389976  0.60234430  0.46432320  1.0
  Ti  Ti1984  1  0.52389976  0.76901097  0.46432320  1.0
  Ti  Ti1985  1  0.52389976  0.93567764  0.46432320  1.0
  Ti  Ti1986  1  0.60723309  0.10234430  0.46432320  1.0
  Ti  Ti1987  1  0.60723309  0.26901097  0.46432320  1.0
  Ti  Ti1988  1  0.60723309  0.43567764  0.46432320  1.0
  Ti  Ti1989  1  0.60723309  0.60234430  0.46432320  1.0
  Ti  Ti1990  1  0.60723309  0.76901097  0.46432320  1.0
  Ti  Ti1991  1  0.60723309  0.93567764  0.46432320  1.0
  Ti  Ti1992  1  0.69056643  0.10234430  0.46432320  1.0
  Ti  Ti1993  1  0.69056643  0.26901097  0.46432320  1.0
  Ti  Ti1994  1  0.69056643  0.43567764  0.46432320  1.0
  Ti  Ti1995  1  0.69056643  0.60234430  0.46432320  1.0
  Ti  Ti1996  1  0.69056643  0.76901097  0.46432320  1.0
  Ti  Ti1997  1  0.69056643  0.93567764  0.46432320  1.0
  Ti  Ti1998  1  0.77389976  0.10234430  0.46432320  1.0
  Ti  Ti1999  1  0.77389976  0.26901097  0.46432320  1.0
  Ti  Ti2000  1  0.77389976  0.43567764  0.46432320  1.0
  Ti  Ti2001  1  0.77389976  0.60234430  0.46432320  1.0
  Ti  Ti2002  1  0.77389976  0.76901097  0.46432320  1.0
  Ti  Ti2003  1  0.77389976  0.93567764  0.46432320  1.0
  Ti  Ti2004  1  0.85723309  0.10234430  0.46432320  1.0
  Ti  Ti2005  1  0.85723309  0.26901097  0.46432320  1.0
  Ti  Ti2006  1  0.85723309  0.43567764  0.46432320  1.0
  Ti  Ti2007  1  0.85723309  0.60234430  0.46432320  1.0
  Ti  Ti2008  1  0.85723309  0.76901097  0.46432320  1.0
  Ti  Ti2009  1  0.85723309  0.93567764  0.46432320  1.0
  Ti  Ti2010  1  0.94056643  0.10234430  0.46432320  1.0
  Ti  Ti2011  1  0.94056643  0.26901097  0.46432320  1.0
  Ti  Ti2012  1  0.94056643  0.43567764  0.46432320  1.0
  Ti  Ti2013  1  0.94056643  0.60234430  0.46432320  1.0
  Ti  Ti2014  1  0.94056643  0.76901097  0.46432320  1.0
  Ti  Ti2015  1  0.94056643  0.93567764  0.46432320  1.0
  Ti  Ti2016  1  0.04980082  0.06423128  0.38163821  1.0
  Ti  Ti2017  1  0.04980082  0.23089795  0.38163821  1.0
  Ti  Ti2018  1  0.04980082  0.39756462  0.38163821  1.0
  Ti  Ti2019  1  0.04980082  0.56423128  0.38163821  1.0
  Ti  Ti2020  1  0.04980082  0.73089795  0.38163821  1.0
  Ti  Ti2021  1  0.04980082  0.89756462  0.38163821  1.0
  Ti  Ti2022  1  0.13313415  0.06423128  0.38163821  1.0
  Ti  Ti2023  1  0.13313415  0.23089795  0.38163821  1.0
  Ti  Ti2024  1  0.13313415  0.39756462  0.38163821  1.0
  Ti  Ti2025  1  0.13313415  0.56423128  0.38163821  1.0
  Ti  Ti2026  1  0.13313415  0.73089795  0.38163821  1.0
  Ti  Ti2027  1  0.13313415  0.89756462  0.38163821  1.0
  Ti  Ti2028  1  0.21646749  0.06423128  0.38163821  1.0
  Ti  Ti2029  1  0.21646749  0.23089795  0.38163821  1.0
  Ti  Ti2030  1  0.21646749  0.39756462  0.38163821  1.0
  Ti  Ti2031  1  0.21646749  0.56423128  0.38163821  1.0
  Ti  Ti2032  1  0.21646749  0.73089795  0.38163821  1.0
  Ti  Ti2033  1  0.21646749  0.89756462  0.38163821  1.0
  Ti  Ti2034  1  0.29980082  0.06423128  0.38163821  1.0
  Ti  Ti2035  1  0.29980082  0.23089795  0.38163821  1.0
  Ti  Ti2036  1  0.29980082  0.39756462  0.38163821  1.0
  Ti  Ti2037  1  0.29980082  0.56423128  0.38163821  1.0
  Ti  Ti2038  1  0.29980082  0.73089795  0.38163821  1.0
  Ti  Ti2039  1  0.29980082  0.89756462  0.38163821  1.0
  Ti  Ti2040  1  0.38313415  0.06423128  0.38163821  1.0
  Ti  Ti2041  1  0.38313415  0.23089795  0.38163821  1.0
  Ti  Ti2042  1  0.38313415  0.39756462  0.38163821  1.0
  Ti  Ti2043  1  0.38313415  0.56423128  0.38163821  1.0
  Ti  Ti2044  1  0.38313415  0.73089795  0.38163821  1.0
  Ti  Ti2045  1  0.38313415  0.89756462  0.38163821  1.0
  Ti  Ti2046  1  0.46646749  0.06423128  0.38163821  1.0
  Ti  Ti2047  1  0.46646749  0.23089795  0.38163821  1.0
  Ti  Ti2048  1  0.46646749  0.39756462  0.38163821  1.0
  Ti  Ti2049  1  0.46646749  0.56423128  0.38163821  1.0
  Ti  Ti2050  1  0.46646749  0.73089795  0.38163821  1.0
  Ti  Ti2051  1  0.46646749  0.89756462  0.38163821  1.0
  Ti  Ti2052  1  0.54980082  0.06423128  0.38163821  1.0
  Ti  Ti2053  1  0.54980082  0.23089795  0.38163821  1.0
  Ti  Ti2054  1  0.54980082  0.39756462  0.38163821  1.0
  Ti  Ti2055  1  0.54980082  0.56423128  0.38163821  1.0
  Ti  Ti2056  1  0.54980082  0.73089795  0.38163821  1.0
  Ti  Ti2057  1  0.54980082  0.89756462  0.38163821  1.0
  Ti  Ti2058  1  0.63313415  0.06423128  0.38163821  1.0
  Ti  Ti2059  1  0.63313415  0.23089795  0.38163821  1.0
  Ti  Ti2060  1  0.63313415  0.39756462  0.38163821  1.0
  Ti  Ti2061  1  0.63313415  0.56423128  0.38163821  1.0
  Ti  Ti2062  1  0.63313415  0.73089795  0.38163821  1.0
  Ti  Ti2063  1  0.63313415  0.89756462  0.38163821  1.0
  Ti  Ti2064  1  0.71646749  0.06423128  0.38163821  1.0
  Ti  Ti2065  1  0.71646749  0.23089795  0.38163821  1.0
  Ti  Ti2066  1  0.71646749  0.39756462  0.38163821  1.0
  Ti  Ti2067  1  0.71646749  0.56423128  0.38163821  1.0
  Ti  Ti2068  1  0.71646749  0.73089795  0.38163821  1.0
  Ti  Ti2069  1  0.71646749  0.89756462  0.38163821  1.0
  Ti  Ti2070  1  0.79980082  0.06423128  0.38163821  1.0
  Ti  Ti2071  1  0.79980082  0.23089795  0.38163821  1.0
  Ti  Ti2072  1  0.79980082  0.39756462  0.38163821  1.0
  Ti  Ti2073  1  0.79980082  0.56423128  0.38163821  1.0
  Ti  Ti2074  1  0.79980082  0.73089795  0.38163821  1.0
  Ti  Ti2075  1  0.79980082  0.89756462  0.38163821  1.0
  Ti  Ti2076  1  0.88313415  0.06423128  0.38163821  1.0
  Ti  Ti2077  1  0.88313415  0.23089795  0.38163821  1.0
  Ti  Ti2078  1  0.88313415  0.39756462  0.38163821  1.0
  Ti  Ti2079  1  0.88313415  0.56423128  0.38163821  1.0
  Ti  Ti2080  1  0.88313415  0.73089795  0.38163821  1.0
  Ti  Ti2081  1  0.88313415  0.89756462  0.38163821  1.0
  Ti  Ti2082  1  0.96646749  0.06423128  0.38163821  1.0
  Ti  Ti2083  1  0.96646749  0.23089795  0.38163821  1.0
  Ti  Ti2084  1  0.96646749  0.39756462  0.38163821  1.0
  Ti  Ti2085  1  0.96646749  0.56423128  0.38163821  1.0
  Ti  Ti2086  1  0.96646749  0.73089795  0.38163821  1.0
  Ti  Ti2087  1  0.96646749  0.89756462  0.38163821  1.0
  Ti  Ti2088  1  0.02599130  0.05232652  0.45306678  1.0
  Ti  Ti2089  1  0.02599130  0.21899319  0.45306678  1.0
  Ti  Ti2090  1  0.02599130  0.38565985  0.45306678  1.0
  Ti  Ti2091  1  0.02599130  0.55232652  0.45306678  1.0
  Ti  Ti2092  1  0.02599130  0.71899319  0.45306678  1.0
  Ti  Ti2093  1  0.02599130  0.88565985  0.45306678  1.0
  Ti  Ti2094  1  0.10932463  0.05232652  0.45306678  1.0
  Ti  Ti2095  1  0.10932463  0.21899319  0.45306678  1.0
  Ti  Ti2096  1  0.10932463  0.38565985  0.45306678  1.0
  Ti  Ti2097  1  0.10932463  0.55232652  0.45306678  1.0
  Ti  Ti2098  1  0.10932463  0.71899319  0.45306678  1.0
  Ti  Ti2099  1  0.10932463  0.88565985  0.45306678  1.0
  Ti  Ti2100  1  0.19265796  0.05232652  0.45306678  1.0
  Ti  Ti2101  1  0.19265796  0.21899319  0.45306678  1.0
  Ti  Ti2102  1  0.19265796  0.38565985  0.45306678  1.0
  Ti  Ti2103  1  0.19265796  0.55232652  0.45306678  1.0
  Ti  Ti2104  1  0.19265796  0.71899319  0.45306678  1.0
  Ti  Ti2105  1  0.19265796  0.88565985  0.45306678  1.0
  Ti  Ti2106  1  0.27599130  0.05232652  0.45306678  1.0
  Ti  Ti2107  1  0.27599130  0.21899319  0.45306678  1.0
  Ti  Ti2108  1  0.27599130  0.38565985  0.45306678  1.0
  Ti  Ti2109  1  0.27599130  0.55232652  0.45306678  1.0
  Ti  Ti2110  1  0.27599130  0.71899319  0.45306678  1.0
  Ti  Ti2111  1  0.27599130  0.88565985  0.45306678  1.0
  Ti  Ti2112  1  0.35932463  0.05232652  0.45306678  1.0
  Ti  Ti2113  1  0.35932463  0.21899319  0.45306678  1.0
  Ti  Ti2114  1  0.35932463  0.38565985  0.45306678  1.0
  Ti  Ti2115  1  0.35932463  0.55232652  0.45306678  1.0
  Ti  Ti2116  1  0.35932463  0.71899319  0.45306678  1.0
  Ti  Ti2117  1  0.35932463  0.88565985  0.45306678  1.0
  Ti  Ti2118  1  0.44265796  0.05232652  0.45306678  1.0
  Ti  Ti2119  1  0.44265796  0.21899319  0.45306678  1.0
  Ti  Ti2120  1  0.44265796  0.38565985  0.45306678  1.0
  Ti  Ti2121  1  0.44265796  0.55232652  0.45306678  1.0
  Ti  Ti2122  1  0.44265796  0.71899319  0.45306678  1.0
  Ti  Ti2123  1  0.44265796  0.88565985  0.45306678  1.0
  Ti  Ti2124  1  0.52599130  0.05232652  0.45306678  1.0
  Ti  Ti2125  1  0.52599130  0.21899319  0.45306678  1.0
  Ti  Ti2126  1  0.52599130  0.38565985  0.45306678  1.0
  Ti  Ti2127  1  0.52599130  0.55232652  0.45306678  1.0
  Ti  Ti2128  1  0.52599130  0.71899319  0.45306678  1.0
  Ti  Ti2129  1  0.52599130  0.88565985  0.45306678  1.0
  Ti  Ti2130  1  0.60932463  0.05232652  0.45306678  1.0
  Ti  Ti2131  1  0.60932463  0.21899319  0.45306678  1.0
  Ti  Ti2132  1  0.60932463  0.38565985  0.45306678  1.0
  Ti  Ti2133  1  0.60932463  0.55232652  0.45306678  1.0
  Ti  Ti2134  1  0.60932463  0.71899319  0.45306678  1.0
  Ti  Ti2135  1  0.60932463  0.88565985  0.45306678  1.0
  Ti  Ti2136  1  0.69265796  0.05232652  0.45306678  1.0
  Ti  Ti2137  1  0.69265796  0.21899319  0.45306678  1.0
  Ti  Ti2138  1  0.69265796  0.38565985  0.45306678  1.0
  Ti  Ti2139  1  0.69265796  0.55232652  0.45306678  1.0
  Ti  Ti2140  1  0.69265796  0.71899319  0.45306678  1.0
  Ti  Ti2141  1  0.69265796  0.88565985  0.45306678  1.0
  Ti  Ti2142  1  0.77599130  0.05232652  0.45306678  1.0
  Ti  Ti2143  1  0.77599130  0.21899319  0.45306678  1.0
  Ti  Ti2144  1  0.77599130  0.38565985  0.45306678  1.0
  Ti  Ti2145  1  0.77599130  0.55232652  0.45306678  1.0
  Ti  Ti2146  1  0.77599130  0.71899319  0.45306678  1.0
  Ti  Ti2147  1  0.77599130  0.88565985  0.45306678  1.0
  Ti  Ti2148  1  0.85932463  0.05232652  0.45306678  1.0
  Ti  Ti2149  1  0.85932463  0.21899319  0.45306678  1.0
  Ti  Ti2150  1  0.85932463  0.38565985  0.45306678  1.0
  Ti  Ti2151  1  0.85932463  0.55232652  0.45306678  1.0
  Ti  Ti2152  1  0.85932463  0.71899319  0.45306678  1.0
  Ti  Ti2153  1  0.85932463  0.88565985  0.45306678  1.0
  Ti  Ti2154  1  0.94265796  0.05232652  0.45306678  1.0
  Ti  Ti2155  1  0.94265796  0.21899319  0.45306678  1.0
  Ti  Ti2156  1  0.94265796  0.38565985  0.45306678  1.0
  Ti  Ti2157  1  0.94265796  0.55232652  0.45306678  1.0
  Ti  Ti2158  1  0.94265796  0.71899319  0.45306678  1.0
  Ti  Ti2159  1  0.94265796  0.88565985  0.45306678  1.0
  Ti  Ti2160  1  0.06049313  0.00328716  0.47795497  1.0
  Ti  Ti2161  1  0.06049313  0.16995383  0.47795497  1.0
  Ti  Ti2162  1  0.06049313  0.33662049  0.47795497  1.0
  Ti  Ti2163  1  0.06049313  0.50328716  0.47795497  1.0
  Ti  Ti2164  1  0.06049313  0.66995383  0.47795497  1.0
  Ti  Ti2165  1  0.06049313  0.83662049  0.47795497  1.0
  Ti  Ti2166  1  0.14382646  0.00328716  0.47795497  1.0
  Ti  Ti2167  1  0.14382646  0.16995383  0.47795497  1.0
  Ti  Ti2168  1  0.14382646  0.33662049  0.47795497  1.0
  Ti  Ti2169  1  0.14382646  0.50328716  0.47795497  1.0
  Ti  Ti2170  1  0.14382646  0.66995383  0.47795497  1.0
  Ti  Ti2171  1  0.14382646  0.83662049  0.47795497  1.0
  Ti  Ti2172  1  0.22715980  0.00328716  0.47795497  1.0
  Ti  Ti2173  1  0.22715980  0.16995383  0.47795497  1.0
  Ti  Ti2174  1  0.22715980  0.33662049  0.47795497  1.0
  Ti  Ti2175  1  0.22715980  0.50328716  0.47795497  1.0
  Ti  Ti2176  1  0.22715980  0.66995383  0.47795497  1.0
  Ti  Ti2177  1  0.22715980  0.83662049  0.47795497  1.0
  Ti  Ti2178  1  0.31049313  0.00328716  0.47795497  1.0
  Ti  Ti2179  1  0.31049313  0.16995383  0.47795497  1.0
  Ti  Ti2180  1  0.31049313  0.33662049  0.47795497  1.0
  Ti  Ti2181  1  0.31049313  0.50328716  0.47795497  1.0
  Ti  Ti2182  1  0.31049313  0.66995383  0.47795497  1.0
  Ti  Ti2183  1  0.31049313  0.83662049  0.47795497  1.0
  Ti  Ti2184  1  0.39382646  0.00328716  0.47795497  1.0
  Ti  Ti2185  1  0.39382646  0.16995383  0.47795497  1.0
  Ti  Ti2186  1  0.39382646  0.33662049  0.47795497  1.0
  Ti  Ti2187  1  0.39382646  0.50328716  0.47795497  1.0
  Ti  Ti2188  1  0.39382646  0.66995383  0.47795497  1.0
  Ti  Ti2189  1  0.39382646  0.83662049  0.47795497  1.0
  Ti  Ti2190  1  0.47715980  0.00328716  0.47795497  1.0
  Ti  Ti2191  1  0.47715980  0.16995383  0.47795497  1.0
  Ti  Ti2192  1  0.47715980  0.33662049  0.47795497  1.0
  Ti  Ti2193  1  0.47715980  0.50328716  0.47795497  1.0
  Ti  Ti2194  1  0.47715980  0.66995383  0.47795497  1.0
  Ti  Ti2195  1  0.47715980  0.83662049  0.47795497  1.0
  Ti  Ti2196  1  0.56049313  0.00328716  0.47795497  1.0
  Ti  Ti2197  1  0.56049313  0.16995383  0.47795497  1.0
  Ti  Ti2198  1  0.56049313  0.33662049  0.47795497  1.0
  Ti  Ti2199  1  0.56049313  0.50328716  0.47795497  1.0
  Ti  Ti2200  1  0.56049313  0.66995383  0.47795497  1.0
  Ti  Ti2201  1  0.56049313  0.83662049  0.47795497  1.0
  Ti  Ti2202  1  0.64382646  0.00328716  0.47795497  1.0
  Ti  Ti2203  1  0.64382646  0.16995383  0.47795497  1.0
  Ti  Ti2204  1  0.64382646  0.33662049  0.47795497  1.0
  Ti  Ti2205  1  0.64382646  0.50328716  0.47795497  1.0
  Ti  Ti2206  1  0.64382646  0.66995383  0.47795497  1.0
  Ti  Ti2207  1  0.64382646  0.83662049  0.47795497  1.0
  Ti  Ti2208  1  0.72715980  0.00328716  0.47795497  1.0
  Ti  Ti2209  1  0.72715980  0.16995383  0.47795497  1.0
  Ti  Ti2210  1  0.72715980  0.33662049  0.47795497  1.0
  Ti  Ti2211  1  0.72715980  0.50328716  0.47795497  1.0
  Ti  Ti2212  1  0.72715980  0.66995383  0.47795497  1.0
  Ti  Ti2213  1  0.72715980  0.83662049  0.47795497  1.0
  Ti  Ti2214  1  0.81049313  0.00328716  0.47795497  1.0
  Ti  Ti2215  1  0.81049313  0.16995383  0.47795497  1.0
  Ti  Ti2216  1  0.81049313  0.33662049  0.47795497  1.0
  Ti  Ti2217  1  0.81049313  0.50328716  0.47795497  1.0
  Ti  Ti2218  1  0.81049313  0.66995383  0.47795497  1.0
  Ti  Ti2219  1  0.81049313  0.83662049  0.47795497  1.0
  Ti  Ti2220  1  0.89382646  0.00328716  0.47795497  1.0
  Ti  Ti2221  1  0.89382646  0.16995383  0.47795497  1.0
  Ti  Ti2222  1  0.89382646  0.33662049  0.47795497  1.0
  Ti  Ti2223  1  0.89382646  0.50328716  0.47795497  1.0
  Ti  Ti2224  1  0.89382646  0.66995383  0.47795497  1.0
  Ti  Ti2225  1  0.89382646  0.83662049  0.47795497  1.0
  Ti  Ti2226  1  0.97715980  0.00328716  0.47795497  1.0
  Ti  Ti2227  1  0.97715980  0.16995383  0.47795497  1.0
  Ti  Ti2228  1  0.97715980  0.33662049  0.47795497  1.0
  Ti  Ti2229  1  0.97715980  0.50328716  0.47795497  1.0
  Ti  Ti2230  1  0.97715980  0.66995383  0.47795497  1.0
  Ti  Ti2231  1  0.97715980  0.83662049  0.47795497  1.0
  Ti  Ti2232  1  0.00096932  0.01519192  0.40652639  1.0
  Ti  Ti2233  1  0.00096932  0.18185859  0.40652639  1.0
  Ti  Ti2234  1  0.00096932  0.34852525  0.40652639  1.0
  Ti  Ti2235  1  0.00096932  0.51519192  0.40652639  1.0
  Ti  Ti2236  1  0.00096932  0.68185859  0.40652639  1.0
  Ti  Ti2237  1  0.00096932  0.84852525  0.40652639  1.0
  Ti  Ti2238  1  0.08430265  0.01519192  0.40652639  1.0
  Ti  Ti2239  1  0.08430265  0.18185859  0.40652639  1.0
  Ti  Ti2240  1  0.08430265  0.34852525  0.40652639  1.0
  Ti  Ti2241  1  0.08430265  0.51519192  0.40652639  1.0
  Ti  Ti2242  1  0.08430265  0.68185859  0.40652639  1.0
  Ti  Ti2243  1  0.08430265  0.84852525  0.40652639  1.0
  Ti  Ti2244  1  0.16763599  0.01519192  0.40652639  1.0
  Ti  Ti2245  1  0.16763599  0.18185859  0.40652639  1.0
  Ti  Ti2246  1  0.16763599  0.34852525  0.40652639  1.0
  Ti  Ti2247  1  0.16763599  0.51519192  0.40652639  1.0
  Ti  Ti2248  1  0.16763599  0.68185859  0.40652639  1.0
  Ti  Ti2249  1  0.16763599  0.84852525  0.40652639  1.0
  Ti  Ti2250  1  0.25096932  0.01519192  0.40652639  1.0
  Ti  Ti2251  1  0.25096932  0.18185859  0.40652639  1.0
  Ti  Ti2252  1  0.25096932  0.34852525  0.40652639  1.0
  Ti  Ti2253  1  0.25096932  0.51519192  0.40652639  1.0
  Ti  Ti2254  1  0.25096932  0.68185859  0.40652639  1.0
  Ti  Ti2255  1  0.25096932  0.84852525  0.40652639  1.0
  Ti  Ti2256  1  0.33430265  0.01519192  0.40652639  1.0
  Ti  Ti2257  1  0.33430265  0.18185859  0.40652639  1.0
  Ti  Ti2258  1  0.33430265  0.34852525  0.40652639  1.0
  Ti  Ti2259  1  0.33430265  0.51519192  0.40652639  1.0
  Ti  Ti2260  1  0.33430265  0.68185859  0.40652639  1.0
  Ti  Ti2261  1  0.33430265  0.84852525  0.40652639  1.0
  Ti  Ti2262  1  0.41763599  0.01519192  0.40652639  1.0
  Ti  Ti2263  1  0.41763599  0.18185859  0.40652639  1.0
  Ti  Ti2264  1  0.41763599  0.34852525  0.40652639  1.0
  Ti  Ti2265  1  0.41763599  0.51519192  0.40652639  1.0
  Ti  Ti2266  1  0.41763599  0.68185859  0.40652639  1.0
  Ti  Ti2267  1  0.41763599  0.84852525  0.40652639  1.0
  Ti  Ti2268  1  0.50096932  0.01519192  0.40652639  1.0
  Ti  Ti2269  1  0.50096932  0.18185859  0.40652639  1.0
  Ti  Ti2270  1  0.50096932  0.34852525  0.40652639  1.0
  Ti  Ti2271  1  0.50096932  0.51519192  0.40652639  1.0
  Ti  Ti2272  1  0.50096932  0.68185859  0.40652639  1.0
  Ti  Ti2273  1  0.50096932  0.84852525  0.40652639  1.0
  Ti  Ti2274  1  0.58430265  0.01519192  0.40652639  1.0
  Ti  Ti2275  1  0.58430265  0.18185859  0.40652639  1.0
  Ti  Ti2276  1  0.58430265  0.34852525  0.40652639  1.0
  Ti  Ti2277  1  0.58430265  0.51519192  0.40652639  1.0
  Ti  Ti2278  1  0.58430265  0.68185859  0.40652639  1.0
  Ti  Ti2279  1  0.58430265  0.84852525  0.40652639  1.0
  Ti  Ti2280  1  0.66763599  0.01519192  0.40652639  1.0
  Ti  Ti2281  1  0.66763599  0.18185859  0.40652639  1.0
  Ti  Ti2282  1  0.66763599  0.34852525  0.40652639  1.0
  Ti  Ti2283  1  0.66763599  0.51519192  0.40652639  1.0
  Ti  Ti2284  1  0.66763599  0.68185859  0.40652639  1.0
  Ti  Ti2285  1  0.66763599  0.84852525  0.40652639  1.0
  Ti  Ti2286  1  0.75096932  0.01519192  0.40652639  1.0
  Ti  Ti2287  1  0.75096932  0.18185859  0.40652639  1.0
  Ti  Ti2288  1  0.75096932  0.34852525  0.40652639  1.0
  Ti  Ti2289  1  0.75096932  0.51519192  0.40652639  1.0
  Ti  Ti2290  1  0.75096932  0.68185859  0.40652639  1.0
  Ti  Ti2291  1  0.75096932  0.84852525  0.40652639  1.0
  Ti  Ti2292  1  0.83430265  0.01519192  0.40652639  1.0
  Ti  Ti2293  1  0.83430265  0.18185859  0.40652639  1.0
  Ti  Ti2294  1  0.83430265  0.34852525  0.40652639  1.0
  Ti  Ti2295  1  0.83430265  0.51519192  0.40652639  1.0
  Ti  Ti2296  1  0.83430265  0.68185859  0.40652639  1.0
  Ti  Ti2297  1  0.83430265  0.84852525  0.40652639  1.0
  Ti  Ti2298  1  0.91763599  0.01519192  0.40652639  1.0
  Ti  Ti2299  1  0.91763599  0.18185859  0.40652639  1.0
  Ti  Ti2300  1  0.91763599  0.34852525  0.40652639  1.0
  Ti  Ti2301  1  0.91763599  0.51519192  0.40652639  1.0
  Ti  Ti2302  1  0.91763599  0.68185859  0.40652639  1.0
  Ti  Ti2303  1  0.91763599  0.84852525  0.40652639  1.0
  Ti  Ti2304  1  0.05350370  0.09453817  0.49734799  1.0
  Ti  Ti2305  1  0.05350370  0.26120484  0.49734799  1.0
  Ti  Ti2306  1  0.05350370  0.42787151  0.49734799  1.0
  Ti  Ti2307  1  0.05350370  0.59453817  0.49734799  1.0
  Ti  Ti2308  1  0.05350370  0.76120484  0.49734799  1.0
  Ti  Ti2309  1  0.05350370  0.92787151  0.49734799  1.0
  Ti  Ti2310  1  0.13683703  0.09453817  0.49734799  1.0
  Ti  Ti2311  1  0.13683703  0.26120484  0.49734799  1.0
  Ti  Ti2312  1  0.13683703  0.42787151  0.49734799  1.0
  Ti  Ti2313  1  0.13683703  0.59453817  0.49734799  1.0
  Ti  Ti2314  1  0.13683703  0.76120484  0.49734799  1.0
  Ti  Ti2315  1  0.13683703  0.92787151  0.49734799  1.0
  Ti  Ti2316  1  0.22017037  0.09453817  0.49734799  1.0
  Ti  Ti2317  1  0.22017037  0.26120484  0.49734799  1.0
  Ti  Ti2318  1  0.22017037  0.42787151  0.49734799  1.0
  Ti  Ti2319  1  0.22017037  0.59453817  0.49734799  1.0
  Ti  Ti2320  1  0.22017037  0.76120484  0.49734799  1.0
  Ti  Ti2321  1  0.22017037  0.92787151  0.49734799  1.0
  Ti  Ti2322  1  0.30350370  0.09453817  0.49734799  1.0
  Ti  Ti2323  1  0.30350370  0.26120484  0.49734799  1.0
  Ti  Ti2324  1  0.30350370  0.42787151  0.49734799  1.0
  Ti  Ti2325  1  0.30350370  0.59453817  0.49734799  1.0
  Ti  Ti2326  1  0.30350370  0.76120484  0.49734799  1.0
  Ti  Ti2327  1  0.30350370  0.92787151  0.49734799  1.0
  Ti  Ti2328  1  0.38683703  0.09453817  0.49734799  1.0
  Ti  Ti2329  1  0.38683703  0.26120484  0.49734799  1.0
  Ti  Ti2330  1  0.38683703  0.42787151  0.49734799  1.0
  Ti  Ti2331  1  0.38683703  0.59453817  0.49734799  1.0
  Ti  Ti2332  1  0.38683703  0.76120484  0.49734799  1.0
  Ti  Ti2333  1  0.38683703  0.92787151  0.49734799  1.0
  Ti  Ti2334  1  0.47017037  0.09453817  0.49734799  1.0
  Ti  Ti2335  1  0.47017037  0.26120484  0.49734799  1.0
  Ti  Ti2336  1  0.47017037  0.42787151  0.49734799  1.0
  Ti  Ti2337  1  0.47017037  0.59453817  0.49734799  1.0
  Ti  Ti2338  1  0.47017037  0.76120484  0.49734799  1.0
  Ti  Ti2339  1  0.47017037  0.92787151  0.49734799  1.0
  Ti  Ti2340  1  0.55350370  0.09453817  0.49734799  1.0
  Ti  Ti2341  1  0.55350370  0.26120484  0.49734799  1.0
  Ti  Ti2342  1  0.55350370  0.42787151  0.49734799  1.0
  Ti  Ti2343  1  0.55350370  0.59453817  0.49734799  1.0
  Ti  Ti2344  1  0.55350370  0.76120484  0.49734799  1.0
  Ti  Ti2345  1  0.55350370  0.92787151  0.49734799  1.0
  Ti  Ti2346  1  0.63683703  0.09453817  0.49734799  1.0
  Ti  Ti2347  1  0.63683703  0.26120484  0.49734799  1.0
  Ti  Ti2348  1  0.63683703  0.42787151  0.49734799  1.0
  Ti  Ti2349  1  0.63683703  0.59453817  0.49734799  1.0
  Ti  Ti2350  1  0.63683703  0.76120484  0.49734799  1.0
  Ti  Ti2351  1  0.63683703  0.92787151  0.49734799  1.0
  Ti  Ti2352  1  0.72017037  0.09453817  0.49734799  1.0
  Ti  Ti2353  1  0.72017037  0.26120484  0.49734799  1.0
  Ti  Ti2354  1  0.72017037  0.42787151  0.49734799  1.0
  Ti  Ti2355  1  0.72017037  0.59453817  0.49734799  1.0
  Ti  Ti2356  1  0.72017037  0.76120484  0.49734799  1.0
  Ti  Ti2357  1  0.72017037  0.92787151  0.49734799  1.0
  Ti  Ti2358  1  0.80350370  0.09453817  0.49734799  1.0
  Ti  Ti2359  1  0.80350370  0.26120484  0.49734799  1.0
  Ti  Ti2360  1  0.80350370  0.42787151  0.49734799  1.0
  Ti  Ti2361  1  0.80350370  0.59453817  0.49734799  1.0
  Ti  Ti2362  1  0.80350370  0.76120484  0.49734799  1.0
  Ti  Ti2363  1  0.80350370  0.92787151  0.49734799  1.0
  Ti  Ti2364  1  0.88683703  0.09453817  0.49734799  1.0
  Ti  Ti2365  1  0.88683703  0.26120484  0.49734799  1.0
  Ti  Ti2366  1  0.88683703  0.42787151  0.49734799  1.0
  Ti  Ti2367  1  0.88683703  0.59453817  0.49734799  1.0
  Ti  Ti2368  1  0.88683703  0.76120484  0.49734799  1.0
  Ti  Ti2369  1  0.88683703  0.92787151  0.49734799  1.0
  Ti  Ti2370  1  0.97017037  0.09453817  0.49734799  1.0
  Ti  Ti2371  1  0.97017037  0.26120484  0.49734799  1.0
  Ti  Ti2372  1  0.97017037  0.42787151  0.49734799  1.0
  Ti  Ti2373  1  0.97017037  0.59453817  0.49734799  1.0
  Ti  Ti2374  1  0.97017037  0.76120484  0.49734799  1.0
  Ti  Ti2375  1  0.97017037  0.92787151  0.49734799  1.0
  Ti  Ti2376  1  0.07731322  0.10644293  0.42591942  1.0
  Ti  Ti2377  1  0.07731322  0.27310960  0.42591942  1.0
  Ti  Ti2378  1  0.07731322  0.43977627  0.42591942  1.0
  Ti  Ti2379  1  0.07731322  0.60644293  0.42591942  1.0
  Ti  Ti2380  1  0.07731322  0.77310960  0.42591942  1.0
  Ti  Ti2381  1  0.07731322  0.93977627  0.42591942  1.0
  Ti  Ti2382  1  0.16064656  0.10644293  0.42591942  1.0
  Ti  Ti2383  1  0.16064656  0.27310960  0.42591942  1.0
  Ti  Ti2384  1  0.16064656  0.43977627  0.42591942  1.0
  Ti  Ti2385  1  0.16064656  0.60644293  0.42591942  1.0
  Ti  Ti2386  1  0.16064656  0.77310960  0.42591942  1.0
  Ti  Ti2387  1  0.16064656  0.93977627  0.42591942  1.0
  Ti  Ti2388  1  0.24397989  0.10644293  0.42591942  1.0
  Ti  Ti2389  1  0.24397989  0.27310960  0.42591942  1.0
  Ti  Ti2390  1  0.24397989  0.43977627  0.42591942  1.0
  Ti  Ti2391  1  0.24397989  0.60644293  0.42591942  1.0
  Ti  Ti2392  1  0.24397989  0.77310960  0.42591942  1.0
  Ti  Ti2393  1  0.24397989  0.93977627  0.42591942  1.0
  Ti  Ti2394  1  0.32731322  0.10644293  0.42591942  1.0
  Ti  Ti2395  1  0.32731322  0.27310960  0.42591942  1.0
  Ti  Ti2396  1  0.32731322  0.43977627  0.42591942  1.0
  Ti  Ti2397  1  0.32731322  0.60644293  0.42591942  1.0
  Ti  Ti2398  1  0.32731322  0.77310960  0.42591942  1.0
  Ti  Ti2399  1  0.32731322  0.93977627  0.42591942  1.0
  Ti  Ti2400  1  0.41064656  0.10644293  0.42591942  1.0
  Ti  Ti2401  1  0.41064656  0.27310960  0.42591942  1.0
  Ti  Ti2402  1  0.41064656  0.43977627  0.42591942  1.0
  Ti  Ti2403  1  0.41064656  0.60644293  0.42591942  1.0
  Ti  Ti2404  1  0.41064656  0.77310960  0.42591942  1.0
  Ti  Ti2405  1  0.41064656  0.93977627  0.42591942  1.0
  Ti  Ti2406  1  0.49397989  0.10644293  0.42591942  1.0
  Ti  Ti2407  1  0.49397989  0.27310960  0.42591942  1.0
  Ti  Ti2408  1  0.49397989  0.43977627  0.42591942  1.0
  Ti  Ti2409  1  0.49397989  0.60644293  0.42591942  1.0
  Ti  Ti2410  1  0.49397989  0.77310960  0.42591942  1.0
  Ti  Ti2411  1  0.49397989  0.93977627  0.42591942  1.0
  Ti  Ti2412  1  0.57731322  0.10644293  0.42591942  1.0
  Ti  Ti2413  1  0.57731322  0.27310960  0.42591942  1.0
  Ti  Ti2414  1  0.57731322  0.43977627  0.42591942  1.0
  Ti  Ti2415  1  0.57731322  0.60644293  0.42591942  1.0
  Ti  Ti2416  1  0.57731322  0.77310960  0.42591942  1.0
  Ti  Ti2417  1  0.57731322  0.93977627  0.42591942  1.0
  Ti  Ti2418  1  0.66064656  0.10644293  0.42591942  1.0
  Ti  Ti2419  1  0.66064656  0.27310960  0.42591942  1.0
  Ti  Ti2420  1  0.66064656  0.43977627  0.42591942  1.0
  Ti  Ti2421  1  0.66064656  0.60644293  0.42591942  1.0
  Ti  Ti2422  1  0.66064656  0.77310960  0.42591942  1.0
  Ti  Ti2423  1  0.66064656  0.93977627  0.42591942  1.0
  Ti  Ti2424  1  0.74397989  0.10644293  0.42591942  1.0
  Ti  Ti2425  1  0.74397989  0.27310960  0.42591942  1.0
  Ti  Ti2426  1  0.74397989  0.43977627  0.42591942  1.0
  Ti  Ti2427  1  0.74397989  0.60644293  0.42591942  1.0
  Ti  Ti2428  1  0.74397989  0.77310960  0.42591942  1.0
  Ti  Ti2429  1  0.74397989  0.93977627  0.42591942  1.0
  Ti  Ti2430  1  0.82731322  0.10644293  0.42591942  1.0
  Ti  Ti2431  1  0.82731322  0.27310960  0.42591942  1.0
  Ti  Ti2432  1  0.82731322  0.43977627  0.42591942  1.0
  Ti  Ti2433  1  0.82731322  0.60644293  0.42591942  1.0
  Ti  Ti2434  1  0.82731322  0.77310960  0.42591942  1.0
  Ti  Ti2435  1  0.82731322  0.93977627  0.42591942  1.0
  Ti  Ti2436  1  0.91064656  0.10644293  0.42591942  1.0
  Ti  Ti2437  1  0.91064656  0.27310960  0.42591942  1.0
  Ti  Ti2438  1  0.91064656  0.43977627  0.42591942  1.0
  Ti  Ti2439  1  0.91064656  0.60644293  0.42591942  1.0
  Ti  Ti2440  1  0.91064656  0.77310960  0.42591942  1.0
  Ti  Ti2441  1  0.91064656  0.93977627  0.42591942  1.0
  Ti  Ti2442  1  0.99397989  0.10644293  0.42591942  1.0
  Ti  Ti2443  1  0.99397989  0.27310960  0.42591942  1.0
  Ti  Ti2444  1  0.99397989  0.43977627  0.42591942  1.0
  Ti  Ti2445  1  0.99397989  0.60644293  0.42591942  1.0
  Ti  Ti2446  1  0.99397989  0.77310960  0.42591942  1.0
  Ti  Ti2447  1  0.99397989  0.93977627  0.42591942  1.0
  Ti  Ti2448  1  0.01696898  0.02700352  0.48164927  1.0
  Ti  Ti2449  1  0.01696898  0.19367018  0.48164927  1.0
  Ti  Ti2450  1  0.01696898  0.36033685  0.48164927  1.0
  Ti  Ti2451  1  0.01696898  0.52700352  0.48164927  1.0
  Ti  Ti2452  1  0.01696898  0.69367018  0.48164927  1.0
  Ti  Ti2453  1  0.01696898  0.86033685  0.48164927  1.0
  Ti  Ti2454  1  0.10030231  0.02700352  0.48164927  1.0
  Ti  Ti2455  1  0.10030231  0.19367018  0.48164927  1.0
  Ti  Ti2456  1  0.10030231  0.36033685  0.48164927  1.0
  Ti  Ti2457  1  0.10030231  0.52700352  0.48164927  1.0
  Ti  Ti2458  1  0.10030231  0.69367018  0.48164927  1.0
  Ti  Ti2459  1  0.10030231  0.86033685  0.48164927  1.0
  Ti  Ti2460  1  0.18363564  0.02700352  0.48164927  1.0
  Ti  Ti2461  1  0.18363564  0.19367018  0.48164927  1.0
  Ti  Ti2462  1  0.18363564  0.36033685  0.48164927  1.0
  Ti  Ti2463  1  0.18363564  0.52700352  0.48164927  1.0
  Ti  Ti2464  1  0.18363564  0.69367018  0.48164927  1.0
  Ti  Ti2465  1  0.18363564  0.86033685  0.48164927  1.0
  Ti  Ti2466  1  0.26696898  0.02700352  0.48164927  1.0
  Ti  Ti2467  1  0.26696898  0.19367018  0.48164927  1.0
  Ti  Ti2468  1  0.26696898  0.36033685  0.48164927  1.0
  Ti  Ti2469  1  0.26696898  0.52700352  0.48164927  1.0
  Ti  Ti2470  1  0.26696898  0.69367018  0.48164927  1.0
  Ti  Ti2471  1  0.26696898  0.86033685  0.48164927  1.0
  Ti  Ti2472  1  0.35030231  0.02700352  0.48164927  1.0
  Ti  Ti2473  1  0.35030231  0.19367018  0.48164927  1.0
  Ti  Ti2474  1  0.35030231  0.36033685  0.48164927  1.0
  Ti  Ti2475  1  0.35030231  0.52700352  0.48164927  1.0
  Ti  Ti2476  1  0.35030231  0.69367018  0.48164927  1.0
  Ti  Ti2477  1  0.35030231  0.86033685  0.48164927  1.0
  Ti  Ti2478  1  0.43363564  0.02700352  0.48164927  1.0
  Ti  Ti2479  1  0.43363564  0.19367018  0.48164927  1.0
  Ti  Ti2480  1  0.43363564  0.36033685  0.48164927  1.0
  Ti  Ti2481  1  0.43363564  0.52700352  0.48164927  1.0
  Ti  Ti2482  1  0.43363564  0.69367018  0.48164927  1.0
  Ti  Ti2483  1  0.43363564  0.86033685  0.48164927  1.0
  Ti  Ti2484  1  0.51696898  0.02700352  0.48164927  1.0
  Ti  Ti2485  1  0.51696898  0.19367018  0.48164927  1.0
  Ti  Ti2486  1  0.51696898  0.36033685  0.48164927  1.0
  Ti  Ti2487  1  0.51696898  0.52700352  0.48164927  1.0
  Ti  Ti2488  1  0.51696898  0.69367018  0.48164927  1.0
  Ti  Ti2489  1  0.51696898  0.86033685  0.48164927  1.0
  Ti  Ti2490  1  0.60030231  0.02700352  0.48164927  1.0
  Ti  Ti2491  1  0.60030231  0.19367018  0.48164927  1.0
  Ti  Ti2492  1  0.60030231  0.36033685  0.48164927  1.0
  Ti  Ti2493  1  0.60030231  0.52700352  0.48164927  1.0
  Ti  Ti2494  1  0.60030231  0.69367018  0.48164927  1.0
  Ti  Ti2495  1  0.60030231  0.86033685  0.48164927  1.0
  Ti  Ti2496  1  0.68363564  0.02700352  0.48164927  1.0
  Ti  Ti2497  1  0.68363564  0.19367018  0.48164927  1.0
  Ti  Ti2498  1  0.68363564  0.36033685  0.48164927  1.0
  Ti  Ti2499  1  0.68363564  0.52700352  0.48164927  1.0
  Ti  Ti2500  1  0.68363564  0.69367018  0.48164927  1.0
  Ti  Ti2501  1  0.68363564  0.86033685  0.48164927  1.0
  Ti  Ti2502  1  0.76696898  0.02700352  0.48164927  1.0
  Ti  Ti2503  1  0.76696898  0.19367018  0.48164927  1.0
  Ti  Ti2504  1  0.76696898  0.36033685  0.48164927  1.0
  Ti  Ti2505  1  0.76696898  0.52700352  0.48164927  1.0
  Ti  Ti2506  1  0.76696898  0.69367018  0.48164927  1.0
  Ti  Ti2507  1  0.76696898  0.86033685  0.48164927  1.0
  Ti  Ti2508  1  0.85030231  0.02700352  0.48164927  1.0
  Ti  Ti2509  1  0.85030231  0.19367018  0.48164927  1.0
  Ti  Ti2510  1  0.85030231  0.36033685  0.48164927  1.0
  Ti  Ti2511  1  0.85030231  0.52700352  0.48164927  1.0
  Ti  Ti2512  1  0.85030231  0.69367018  0.48164927  1.0
  Ti  Ti2513  1  0.85030231  0.86033685  0.48164927  1.0
  Ti  Ti2514  1  0.93363564  0.02700352  0.48164927  1.0
  Ti  Ti2515  1  0.93363564  0.19367018  0.48164927  1.0
  Ti  Ti2516  1  0.93363564  0.36033685  0.48164927  1.0
  Ti  Ti2517  1  0.93363564  0.52700352  0.48164927  1.0
  Ti  Ti2518  1  0.93363564  0.69367018  0.48164927  1.0
  Ti  Ti2519  1  0.93363564  0.86033685  0.48164927  1.0
  Ti  Ti2520  1  0.04077850  0.03890828  0.41022069  1.0
  Ti  Ti2521  1  0.04077850  0.20557495  0.41022069  1.0
  Ti  Ti2522  1  0.04077850  0.37224161  0.41022069  1.0
  Ti  Ti2523  1  0.04077850  0.53890828  0.41022069  1.0
  Ti  Ti2524  1  0.04077850  0.70557495  0.41022069  1.0
  Ti  Ti2525  1  0.04077850  0.87224161  0.41022069  1.0
  Ti  Ti2526  1  0.12411183  0.03890828  0.41022069  1.0
  Ti  Ti2527  1  0.12411183  0.20557495  0.41022069  1.0
  Ti  Ti2528  1  0.12411183  0.37224161  0.41022069  1.0
  Ti  Ti2529  1  0.12411183  0.53890828  0.41022069  1.0
  Ti  Ti2530  1  0.12411183  0.70557495  0.41022069  1.0
  Ti  Ti2531  1  0.12411183  0.87224161  0.41022069  1.0
  Ti  Ti2532  1  0.20744517  0.03890828  0.41022069  1.0
  Ti  Ti2533  1  0.20744517  0.20557495  0.41022069  1.0
  Ti  Ti2534  1  0.20744517  0.37224161  0.41022069  1.0
  Ti  Ti2535  1  0.20744517  0.53890828  0.41022069  1.0
  Ti  Ti2536  1  0.20744517  0.70557495  0.41022069  1.0
  Ti  Ti2537  1  0.20744517  0.87224161  0.41022069  1.0
  Ti  Ti2538  1  0.29077850  0.03890828  0.41022069  1.0
  Ti  Ti2539  1  0.29077850  0.20557495  0.41022069  1.0
  Ti  Ti2540  1  0.29077850  0.37224161  0.41022069  1.0
  Ti  Ti2541  1  0.29077850  0.53890828  0.41022069  1.0
  Ti  Ti2542  1  0.29077850  0.70557495  0.41022069  1.0
  Ti  Ti2543  1  0.29077850  0.87224161  0.41022069  1.0
  Ti  Ti2544  1  0.37411183  0.03890828  0.41022069  1.0
  Ti  Ti2545  1  0.37411183  0.20557495  0.41022069  1.0
  Ti  Ti2546  1  0.37411183  0.37224161  0.41022069  1.0
  Ti  Ti2547  1  0.37411183  0.53890828  0.41022069  1.0
  Ti  Ti2548  1  0.37411183  0.70557495  0.41022069  1.0
  Ti  Ti2549  1  0.37411183  0.87224161  0.41022069  1.0
  Ti  Ti2550  1  0.45744517  0.03890828  0.41022069  1.0
  Ti  Ti2551  1  0.45744517  0.20557495  0.41022069  1.0
  Ti  Ti2552  1  0.45744517  0.37224161  0.41022069  1.0
  Ti  Ti2553  1  0.45744517  0.53890828  0.41022069  1.0
  Ti  Ti2554  1  0.45744517  0.70557495  0.41022069  1.0
  Ti  Ti2555  1  0.45744517  0.87224161  0.41022069  1.0
  Ti  Ti2556  1  0.54077850  0.03890828  0.41022069  1.0
  Ti  Ti2557  1  0.54077850  0.20557495  0.41022069  1.0
  Ti  Ti2558  1  0.54077850  0.37224161  0.41022069  1.0
  Ti  Ti2559  1  0.54077850  0.53890828  0.41022069  1.0
  Ti  Ti2560  1  0.54077850  0.70557495  0.41022069  1.0
  Ti  Ti2561  1  0.54077850  0.87224161  0.41022069  1.0
  Ti  Ti2562  1  0.62411183  0.03890828  0.41022069  1.0
  Ti  Ti2563  1  0.62411183  0.20557495  0.41022069  1.0
  Ti  Ti2564  1  0.62411183  0.37224161  0.41022069  1.0
  Ti  Ti2565  1  0.62411183  0.53890828  0.41022069  1.0
  Ti  Ti2566  1  0.62411183  0.70557495  0.41022069  1.0
  Ti  Ti2567  1  0.62411183  0.87224161  0.41022069  1.0
  Ti  Ti2568  1  0.70744517  0.03890828  0.41022069  1.0
  Ti  Ti2569  1  0.70744517  0.20557495  0.41022069  1.0
  Ti  Ti2570  1  0.70744517  0.37224161  0.41022069  1.0
  Ti  Ti2571  1  0.70744517  0.53890828  0.41022069  1.0
  Ti  Ti2572  1  0.70744517  0.70557495  0.41022069  1.0
  Ti  Ti2573  1  0.70744517  0.87224161  0.41022069  1.0
  Ti  Ti2574  1  0.79077850  0.03890828  0.41022069  1.0
  Ti  Ti2575  1  0.79077850  0.20557495  0.41022069  1.0
  Ti  Ti2576  1  0.79077850  0.37224161  0.41022069  1.0
  Ti  Ti2577  1  0.79077850  0.53890828  0.41022069  1.0
  Ti  Ti2578  1  0.79077850  0.70557495  0.41022069  1.0
  Ti  Ti2579  1  0.79077850  0.87224161  0.41022069  1.0
  Ti  Ti2580  1  0.87411183  0.03890828  0.41022069  1.0
  Ti  Ti2581  1  0.87411183  0.20557495  0.41022069  1.0
  Ti  Ti2582  1  0.87411183  0.37224161  0.41022069  1.0
  Ti  Ti2583  1  0.87411183  0.53890828  0.41022069  1.0
  Ti  Ti2584  1  0.87411183  0.70557495  0.41022069  1.0
  Ti  Ti2585  1  0.87411183  0.87224161  0.41022069  1.0
  Ti  Ti2586  1  0.95744517  0.03890828  0.41022069  1.0
  Ti  Ti2587  1  0.95744517  0.20557495  0.41022069  1.0
  Ti  Ti2588  1  0.95744517  0.37224161  0.41022069  1.0
  Ti  Ti2589  1  0.95744517  0.53890828  0.41022069  1.0
  Ti  Ti2590  1  0.95744517  0.70557495  0.41022069  1.0
  Ti  Ti2591  1  0.95744517  0.87224161  0.41022069  1.0
  Ti  Ti2592  1  0.02071531  0.14629746  0.47429469  1.0
  Ti  Ti2593  1  0.02071531  0.31296413  0.47429469  1.0
  Ti  Ti2594  1  0.02071531  0.47963080  0.47429469  1.0
  Ti  Ti2595  1  0.02071531  0.64629746  0.47429469  1.0
  Ti  Ti2596  1  0.02071531  0.81296413  0.47429469  1.0
  Ti  Ti2597  1  0.02071531  0.97963080  0.47429469  1.0
  Ti  Ti2598  1  0.10404864  0.14629746  0.47429469  1.0
  Ti  Ti2599  1  0.10404864  0.31296413  0.47429469  1.0
  Ti  Ti2600  1  0.10404864  0.47963080  0.47429469  1.0
  Ti  Ti2601  1  0.10404864  0.64629746  0.47429469  1.0
  Ti  Ti2602  1  0.10404864  0.81296413  0.47429469  1.0
  Ti  Ti2603  1  0.10404864  0.97963080  0.47429469  1.0
  Ti  Ti2604  1  0.18738197  0.14629746  0.47429469  1.0
  Ti  Ti2605  1  0.18738197  0.31296413  0.47429469  1.0
  Ti  Ti2606  1  0.18738197  0.47963080  0.47429469  1.0
  Ti  Ti2607  1  0.18738197  0.64629746  0.47429469  1.0
  Ti  Ti2608  1  0.18738197  0.81296413  0.47429469  1.0
  Ti  Ti2609  1  0.18738197  0.97963080  0.47429469  1.0
  Ti  Ti2610  1  0.27071531  0.14629746  0.47429469  1.0
  Ti  Ti2611  1  0.27071531  0.31296413  0.47429469  1.0
  Ti  Ti2612  1  0.27071531  0.47963080  0.47429469  1.0
  Ti  Ti2613  1  0.27071531  0.64629746  0.47429469  1.0
  Ti  Ti2614  1  0.27071531  0.81296413  0.47429469  1.0
  Ti  Ti2615  1  0.27071531  0.97963080  0.47429469  1.0
  Ti  Ti2616  1  0.35404864  0.14629746  0.47429469  1.0
  Ti  Ti2617  1  0.35404864  0.31296413  0.47429469  1.0
  Ti  Ti2618  1  0.35404864  0.47963080  0.47429469  1.0
  Ti  Ti2619  1  0.35404864  0.64629746  0.47429469  1.0
  Ti  Ti2620  1  0.35404864  0.81296413  0.47429469  1.0
  Ti  Ti2621  1  0.35404864  0.97963080  0.47429469  1.0
  Ti  Ti2622  1  0.43738197  0.14629746  0.47429469  1.0
  Ti  Ti2623  1  0.43738197  0.31296413  0.47429469  1.0
  Ti  Ti2624  1  0.43738197  0.47963080  0.47429469  1.0
  Ti  Ti2625  1  0.43738197  0.64629746  0.47429469  1.0
  Ti  Ti2626  1  0.43738197  0.81296413  0.47429469  1.0
  Ti  Ti2627  1  0.43738197  0.97963080  0.47429469  1.0
  Ti  Ti2628  1  0.52071531  0.14629746  0.47429469  1.0
  Ti  Ti2629  1  0.52071531  0.31296413  0.47429469  1.0
  Ti  Ti2630  1  0.52071531  0.47963080  0.47429469  1.0
  Ti  Ti2631  1  0.52071531  0.64629746  0.47429469  1.0
  Ti  Ti2632  1  0.52071531  0.81296413  0.47429469  1.0
  Ti  Ti2633  1  0.52071531  0.97963080  0.47429469  1.0
  Ti  Ti2634  1  0.60404864  0.14629746  0.47429469  1.0
  Ti  Ti2635  1  0.60404864  0.31296413  0.47429469  1.0
  Ti  Ti2636  1  0.60404864  0.47963080  0.47429469  1.0
  Ti  Ti2637  1  0.60404864  0.64629746  0.47429469  1.0
  Ti  Ti2638  1  0.60404864  0.81296413  0.47429469  1.0
  Ti  Ti2639  1  0.60404864  0.97963080  0.47429469  1.0
  Ti  Ti2640  1  0.68738197  0.14629746  0.47429469  1.0
  Ti  Ti2641  1  0.68738197  0.31296413  0.47429469  1.0
  Ti  Ti2642  1  0.68738197  0.47963080  0.47429469  1.0
  Ti  Ti2643  1  0.68738197  0.64629746  0.47429469  1.0
  Ti  Ti2644  1  0.68738197  0.81296413  0.47429469  1.0
  Ti  Ti2645  1  0.68738197  0.97963080  0.47429469  1.0
  Ti  Ti2646  1  0.77071531  0.14629746  0.47429469  1.0
  Ti  Ti2647  1  0.77071531  0.31296413  0.47429469  1.0
  Ti  Ti2648  1  0.77071531  0.47963080  0.47429469  1.0
  Ti  Ti2649  1  0.77071531  0.64629746  0.47429469  1.0
  Ti  Ti2650  1  0.77071531  0.81296413  0.47429469  1.0
  Ti  Ti2651  1  0.77071531  0.97963080  0.47429469  1.0
  Ti  Ti2652  1  0.85404864  0.14629746  0.47429469  1.0
  Ti  Ti2653  1  0.85404864  0.31296413  0.47429469  1.0
  Ti  Ti2654  1  0.85404864  0.47963080  0.47429469  1.0
  Ti  Ti2655  1  0.85404864  0.64629746  0.47429469  1.0
  Ti  Ti2656  1  0.85404864  0.81296413  0.47429469  1.0
  Ti  Ti2657  1  0.85404864  0.97963080  0.47429469  1.0
  Ti  Ti2658  1  0.93738197  0.14629746  0.47429469  1.0
  Ti  Ti2659  1  0.93738197  0.31296413  0.47429469  1.0
  Ti  Ti2660  1  0.93738197  0.47963080  0.47429469  1.0
  Ti  Ti2661  1  0.93738197  0.64629746  0.47429469  1.0
  Ti  Ti2662  1  0.93738197  0.81296413  0.47429469  1.0
  Ti  Ti2663  1  0.93738197  0.97963080  0.47429469  1.0
  Ti  Ti2664  1  0.04452483  0.15820223  0.40286612  1.0
  Ti  Ti2665  1  0.04452483  0.32486889  0.40286612  1.0
  Ti  Ti2666  1  0.04452483  0.49153556  0.40286612  1.0
  Ti  Ti2667  1  0.04452483  0.65820223  0.40286612  1.0
  Ti  Ti2668  1  0.04452483  0.82486889  0.40286612  1.0
  Ti  Ti2669  1  0.04452483  0.99153556  0.40286612  1.0
  Ti  Ti2670  1  0.12785816  0.15820223  0.40286612  1.0
  Ti  Ti2671  1  0.12785816  0.32486889  0.40286612  1.0
  Ti  Ti2672  1  0.12785816  0.49153556  0.40286612  1.0
  Ti  Ti2673  1  0.12785816  0.65820223  0.40286612  1.0
  Ti  Ti2674  1  0.12785816  0.82486889  0.40286612  1.0
  Ti  Ti2675  1  0.12785816  0.99153556  0.40286612  1.0
  Ti  Ti2676  1  0.21119150  0.15820223  0.40286612  1.0
  Ti  Ti2677  1  0.21119150  0.32486889  0.40286612  1.0
  Ti  Ti2678  1  0.21119150  0.49153556  0.40286612  1.0
  Ti  Ti2679  1  0.21119150  0.65820223  0.40286612  1.0
  Ti  Ti2680  1  0.21119150  0.82486889  0.40286612  1.0
  Ti  Ti2681  1  0.21119150  0.99153556  0.40286612  1.0
  Ti  Ti2682  1  0.29452483  0.15820223  0.40286612  1.0
  Ti  Ti2683  1  0.29452483  0.32486889  0.40286612  1.0
  Ti  Ti2684  1  0.29452483  0.49153556  0.40286612  1.0
  Ti  Ti2685  1  0.29452483  0.65820223  0.40286612  1.0
  Ti  Ti2686  1  0.29452483  0.82486889  0.40286612  1.0
  Ti  Ti2687  1  0.29452483  0.99153556  0.40286612  1.0
  Ti  Ti2688  1  0.37785816  0.15820223  0.40286612  1.0
  Ti  Ti2689  1  0.37785816  0.32486889  0.40286612  1.0
  Ti  Ti2690  1  0.37785816  0.49153556  0.40286612  1.0
  Ti  Ti2691  1  0.37785816  0.65820223  0.40286612  1.0
  Ti  Ti2692  1  0.37785816  0.82486889  0.40286612  1.0
  Ti  Ti2693  1  0.37785816  0.99153556  0.40286612  1.0
  Ti  Ti2694  1  0.46119150  0.15820223  0.40286612  1.0
  Ti  Ti2695  1  0.46119150  0.32486889  0.40286612  1.0
  Ti  Ti2696  1  0.46119150  0.49153556  0.40286612  1.0
  Ti  Ti2697  1  0.46119150  0.65820223  0.40286612  1.0
  Ti  Ti2698  1  0.46119150  0.82486889  0.40286612  1.0
  Ti  Ti2699  1  0.46119150  0.99153556  0.40286612  1.0
  Ti  Ti2700  1  0.54452483  0.15820223  0.40286612  1.0
  Ti  Ti2701  1  0.54452483  0.32486889  0.40286612  1.0
  Ti  Ti2702  1  0.54452483  0.49153556  0.40286612  1.0
  Ti  Ti2703  1  0.54452483  0.65820223  0.40286612  1.0
  Ti  Ti2704  1  0.54452483  0.82486889  0.40286612  1.0
  Ti  Ti2705  1  0.54452483  0.99153556  0.40286612  1.0
  Ti  Ti2706  1  0.62785816  0.15820223  0.40286612  1.0
  Ti  Ti2707  1  0.62785816  0.32486889  0.40286612  1.0
  Ti  Ti2708  1  0.62785816  0.49153556  0.40286612  1.0
  Ti  Ti2709  1  0.62785816  0.65820223  0.40286612  1.0
  Ti  Ti2710  1  0.62785816  0.82486889  0.40286612  1.0
  Ti  Ti2711  1  0.62785816  0.99153556  0.40286612  1.0
  Ti  Ti2712  1  0.71119150  0.15820223  0.40286612  1.0
  Ti  Ti2713  1  0.71119150  0.32486889  0.40286612  1.0
  Ti  Ti2714  1  0.71119150  0.49153556  0.40286612  1.0
  Ti  Ti2715  1  0.71119150  0.65820223  0.40286612  1.0
  Ti  Ti2716  1  0.71119150  0.82486889  0.40286612  1.0
  Ti  Ti2717  1  0.71119150  0.99153556  0.40286612  1.0
  Ti  Ti2718  1  0.79452483  0.15820223  0.40286612  1.0
  Ti  Ti2719  1  0.79452483  0.32486889  0.40286612  1.0
  Ti  Ti2720  1  0.79452483  0.49153556  0.40286612  1.0
  Ti  Ti2721  1  0.79452483  0.65820223  0.40286612  1.0
  Ti  Ti2722  1  0.79452483  0.82486889  0.40286612  1.0
  Ti  Ti2723  1  0.79452483  0.99153556  0.40286612  1.0
  Ti  Ti2724  1  0.87785816  0.15820223  0.40286612  1.0
  Ti  Ti2725  1  0.87785816  0.32486889  0.40286612  1.0
  Ti  Ti2726  1  0.87785816  0.49153556  0.40286612  1.0
  Ti  Ti2727  1  0.87785816  0.65820223  0.40286612  1.0
  Ti  Ti2728  1  0.87785816  0.82486889  0.40286612  1.0
  Ti  Ti2729  1  0.87785816  0.99153556  0.40286612  1.0
  Ti  Ti2730  1  0.96119150  0.15820223  0.40286612  1.0
  Ti  Ti2731  1  0.96119150  0.32486889  0.40286612  1.0
  Ti  Ti2732  1  0.96119150  0.49153556  0.40286612  1.0
  Ti  Ti2733  1  0.96119150  0.65820223  0.40286612  1.0
  Ti  Ti2734  1  0.96119150  0.82486889  0.40286612  1.0
  Ti  Ti2735  1  0.96119150  0.99153556  0.40286612  1.0
  Ti  Ti2736  1  0.01375498  0.07092315  0.49156828  1.0
  Ti  Ti2737  1  0.01375498  0.23758981  0.49156828  1.0
  Ti  Ti2738  1  0.01375498  0.40425648  0.49156828  1.0
  Ti  Ti2739  1  0.01375498  0.57092315  0.49156828  1.0
  Ti  Ti2740  1  0.01375498  0.73758981  0.49156828  1.0
  Ti  Ti2741  1  0.01375498  0.90425648  0.49156828  1.0
  Ti  Ti2742  1  0.09708831  0.07092315  0.49156828  1.0
  Ti  Ti2743  1  0.09708831  0.23758981  0.49156828  1.0
  Ti  Ti2744  1  0.09708831  0.40425648  0.49156828  1.0
  Ti  Ti2745  1  0.09708831  0.57092315  0.49156828  1.0
  Ti  Ti2746  1  0.09708831  0.73758981  0.49156828  1.0
  Ti  Ti2747  1  0.09708831  0.90425648  0.49156828  1.0
  Ti  Ti2748  1  0.18042165  0.07092315  0.49156828  1.0
  Ti  Ti2749  1  0.18042165  0.23758981  0.49156828  1.0
  Ti  Ti2750  1  0.18042165  0.40425648  0.49156828  1.0
  Ti  Ti2751  1  0.18042165  0.57092315  0.49156828  1.0
  Ti  Ti2752  1  0.18042165  0.73758981  0.49156828  1.0
  Ti  Ti2753  1  0.18042165  0.90425648  0.49156828  1.0
  Ti  Ti2754  1  0.26375498  0.07092315  0.49156828  1.0
  Ti  Ti2755  1  0.26375498  0.23758981  0.49156828  1.0
  Ti  Ti2756  1  0.26375498  0.40425648  0.49156828  1.0
  Ti  Ti2757  1  0.26375498  0.57092315  0.49156828  1.0
  Ti  Ti2758  1  0.26375498  0.73758981  0.49156828  1.0
  Ti  Ti2759  1  0.26375498  0.90425648  0.49156828  1.0
  Ti  Ti2760  1  0.34708831  0.07092315  0.49156828  1.0
  Ti  Ti2761  1  0.34708831  0.23758981  0.49156828  1.0
  Ti  Ti2762  1  0.34708831  0.40425648  0.49156828  1.0
  Ti  Ti2763  1  0.34708831  0.57092315  0.49156828  1.0
  Ti  Ti2764  1  0.34708831  0.73758981  0.49156828  1.0
  Ti  Ti2765  1  0.34708831  0.90425648  0.49156828  1.0
  Ti  Ti2766  1  0.43042165  0.07092315  0.49156828  1.0
  Ti  Ti2767  1  0.43042165  0.23758981  0.49156828  1.0
  Ti  Ti2768  1  0.43042165  0.40425648  0.49156828  1.0
  Ti  Ti2769  1  0.43042165  0.57092315  0.49156828  1.0
  Ti  Ti2770  1  0.43042165  0.73758981  0.49156828  1.0
  Ti  Ti2771  1  0.43042165  0.90425648  0.49156828  1.0
  Ti  Ti2772  1  0.51375498  0.07092315  0.49156828  1.0
  Ti  Ti2773  1  0.51375498  0.23758981  0.49156828  1.0
  Ti  Ti2774  1  0.51375498  0.40425648  0.49156828  1.0
  Ti  Ti2775  1  0.51375498  0.57092315  0.49156828  1.0
  Ti  Ti2776  1  0.51375498  0.73758981  0.49156828  1.0
  Ti  Ti2777  1  0.51375498  0.90425648  0.49156828  1.0
  Ti  Ti2778  1  0.59708831  0.07092315  0.49156828  1.0
  Ti  Ti2779  1  0.59708831  0.23758981  0.49156828  1.0
  Ti  Ti2780  1  0.59708831  0.40425648  0.49156828  1.0
  Ti  Ti2781  1  0.59708831  0.57092315  0.49156828  1.0
  Ti  Ti2782  1  0.59708831  0.73758981  0.49156828  1.0
  Ti  Ti2783  1  0.59708831  0.90425648  0.49156828  1.0
  Ti  Ti2784  1  0.68042165  0.07092315  0.49156828  1.0
  Ti  Ti2785  1  0.68042165  0.23758981  0.49156828  1.0
  Ti  Ti2786  1  0.68042165  0.40425648  0.49156828  1.0
  Ti  Ti2787  1  0.68042165  0.57092315  0.49156828  1.0
  Ti  Ti2788  1  0.68042165  0.73758981  0.49156828  1.0
  Ti  Ti2789  1  0.68042165  0.90425648  0.49156828  1.0
  Ti  Ti2790  1  0.76375498  0.07092315  0.49156828  1.0
  Ti  Ti2791  1  0.76375498  0.23758981  0.49156828  1.0
  Ti  Ti2792  1  0.76375498  0.40425648  0.49156828  1.0
  Ti  Ti2793  1  0.76375498  0.57092315  0.49156828  1.0
  Ti  Ti2794  1  0.76375498  0.73758981  0.49156828  1.0
  Ti  Ti2795  1  0.76375498  0.90425648  0.49156828  1.0
  Ti  Ti2796  1  0.84708831  0.07092315  0.49156828  1.0
  Ti  Ti2797  1  0.84708831  0.23758981  0.49156828  1.0
  Ti  Ti2798  1  0.84708831  0.40425648  0.49156828  1.0
  Ti  Ti2799  1  0.84708831  0.57092315  0.49156828  1.0
  Ti  Ti2800  1  0.84708831  0.73758981  0.49156828  1.0
  Ti  Ti2801  1  0.84708831  0.90425648  0.49156828  1.0
  Ti  Ti2802  1  0.93042165  0.07092315  0.49156828  1.0
  Ti  Ti2803  1  0.93042165  0.23758981  0.49156828  1.0
  Ti  Ti2804  1  0.93042165  0.40425648  0.49156828  1.0
  Ti  Ti2805  1  0.93042165  0.57092315  0.49156828  1.0
  Ti  Ti2806  1  0.93042165  0.73758981  0.49156828  1.0
  Ti  Ti2807  1  0.93042165  0.90425648  0.49156828  1.0
  Ti  Ti2808  1  0.03756450  0.08282791  0.42013970  1.0
  Ti  Ti2809  1  0.03756450  0.24949458  0.42013970  1.0
  Ti  Ti2810  1  0.03756450  0.41616124  0.42013970  1.0
  Ti  Ti2811  1  0.03756450  0.58282791  0.42013970  1.0
  Ti  Ti2812  1  0.03756450  0.74949458  0.42013970  1.0
  Ti  Ti2813  1  0.03756450  0.91616124  0.42013970  1.0
  Ti  Ti2814  1  0.12089784  0.08282791  0.42013970  1.0
  Ti  Ti2815  1  0.12089784  0.24949458  0.42013970  1.0
  Ti  Ti2816  1  0.12089784  0.41616124  0.42013970  1.0
  Ti  Ti2817  1  0.12089784  0.58282791  0.42013970  1.0
  Ti  Ti2818  1  0.12089784  0.74949458  0.42013970  1.0
  Ti  Ti2819  1  0.12089784  0.91616124  0.42013970  1.0
  Ti  Ti2820  1  0.20423117  0.08282791  0.42013970  1.0
  Ti  Ti2821  1  0.20423117  0.24949458  0.42013970  1.0
  Ti  Ti2822  1  0.20423117  0.41616124  0.42013970  1.0
  Ti  Ti2823  1  0.20423117  0.58282791  0.42013970  1.0
  Ti  Ti2824  1  0.20423117  0.74949458  0.42013970  1.0
  Ti  Ti2825  1  0.20423117  0.91616124  0.42013970  1.0
  Ti  Ti2826  1  0.28756450  0.08282791  0.42013970  1.0
  Ti  Ti2827  1  0.28756450  0.24949458  0.42013970  1.0
  Ti  Ti2828  1  0.28756450  0.41616124  0.42013970  1.0
  Ti  Ti2829  1  0.28756450  0.58282791  0.42013970  1.0
  Ti  Ti2830  1  0.28756450  0.74949458  0.42013970  1.0
  Ti  Ti2831  1  0.28756450  0.91616124  0.42013970  1.0
  Ti  Ti2832  1  0.37089784  0.08282791  0.42013970  1.0
  Ti  Ti2833  1  0.37089784  0.24949458  0.42013970  1.0
  Ti  Ti2834  1  0.37089784  0.41616124  0.42013970  1.0
  Ti  Ti2835  1  0.37089784  0.58282791  0.42013970  1.0
  Ti  Ti2836  1  0.37089784  0.74949458  0.42013970  1.0
  Ti  Ti2837  1  0.37089784  0.91616124  0.42013970  1.0
  Ti  Ti2838  1  0.45423117  0.08282791  0.42013970  1.0
  Ti  Ti2839  1  0.45423117  0.24949458  0.42013970  1.0
  Ti  Ti2840  1  0.45423117  0.41616124  0.42013970  1.0
  Ti  Ti2841  1  0.45423117  0.58282791  0.42013970  1.0
  Ti  Ti2842  1  0.45423117  0.74949458  0.42013970  1.0
  Ti  Ti2843  1  0.45423117  0.91616124  0.42013970  1.0
  Ti  Ti2844  1  0.53756450  0.08282791  0.42013970  1.0
  Ti  Ti2845  1  0.53756450  0.24949458  0.42013970  1.0
  Ti  Ti2846  1  0.53756450  0.41616124  0.42013970  1.0
  Ti  Ti2847  1  0.53756450  0.58282791  0.42013970  1.0
  Ti  Ti2848  1  0.53756450  0.74949458  0.42013970  1.0
  Ti  Ti2849  1  0.53756450  0.91616124  0.42013970  1.0
  Ti  Ti2850  1  0.62089784  0.08282791  0.42013970  1.0
  Ti  Ti2851  1  0.62089784  0.24949458  0.42013970  1.0
  Ti  Ti2852  1  0.62089784  0.41616124  0.42013970  1.0
  Ti  Ti2853  1  0.62089784  0.58282791  0.42013970  1.0
  Ti  Ti2854  1  0.62089784  0.74949458  0.42013970  1.0
  Ti  Ti2855  1  0.62089784  0.91616124  0.42013970  1.0
  Ti  Ti2856  1  0.70423117  0.08282791  0.42013970  1.0
  Ti  Ti2857  1  0.70423117  0.24949458  0.42013970  1.0
  Ti  Ti2858  1  0.70423117  0.41616124  0.42013970  1.0
  Ti  Ti2859  1  0.70423117  0.58282791  0.42013970  1.0
  Ti  Ti2860  1  0.70423117  0.74949458  0.42013970  1.0
  Ti  Ti2861  1  0.70423117  0.91616124  0.42013970  1.0
  Ti  Ti2862  1  0.78756450  0.08282791  0.42013970  1.0
  Ti  Ti2863  1  0.78756450  0.24949458  0.42013970  1.0
  Ti  Ti2864  1  0.78756450  0.41616124  0.42013970  1.0
  Ti  Ti2865  1  0.78756450  0.58282791  0.42013970  1.0
  Ti  Ti2866  1  0.78756450  0.74949458  0.42013970  1.0
  Ti  Ti2867  1  0.78756450  0.91616124  0.42013970  1.0
  Ti  Ti2868  1  0.87089784  0.08282791  0.42013970  1.0
  Ti  Ti2869  1  0.87089784  0.24949458  0.42013970  1.0
  Ti  Ti2870  1  0.87089784  0.41616124  0.42013970  1.0
  Ti  Ti2871  1  0.87089784  0.58282791  0.42013970  1.0
  Ti  Ti2872  1  0.87089784  0.74949458  0.42013970  1.0
  Ti  Ti2873  1  0.87089784  0.91616124  0.42013970  1.0
  Ti  Ti2874  1  0.95423117  0.08282791  0.42013970  1.0
  Ti  Ti2875  1  0.95423117  0.24949458  0.42013970  1.0
  Ti  Ti2876  1  0.95423117  0.41616124  0.42013970  1.0
  Ti  Ti2877  1  0.95423117  0.58282791  0.42013970  1.0
  Ti  Ti2878  1  0.95423117  0.74949458  0.42013970  1.0
  Ti  Ti2879  1  0.95423117  0.91616124  0.42013970  1.0
  Ti  Ti2880  1  0.04375767  0.06684283  0.53002396  1.0
  Ti  Ti2881  1  0.04375767  0.23350949  0.53002396  1.0
  Ti  Ti2882  1  0.04375767  0.40017616  0.53002396  1.0
  Ti  Ti2883  1  0.04375767  0.56684283  0.53002396  1.0
  Ti  Ti2884  1  0.04375767  0.73350949  0.53002396  1.0
  Ti  Ti2885  1  0.04375767  0.90017616  0.53002396  1.0
  Ti  Ti2886  1  0.12709100  0.06684283  0.53002396  1.0
  Ti  Ti2887  1  0.12709100  0.23350949  0.53002396  1.0
  Ti  Ti2888  1  0.12709100  0.40017616  0.53002396  1.0
  Ti  Ti2889  1  0.12709100  0.56684283  0.53002396  1.0
  Ti  Ti2890  1  0.12709100  0.73350949  0.53002396  1.0
  Ti  Ti2891  1  0.12709100  0.90017616  0.53002396  1.0
  Ti  Ti2892  1  0.21042434  0.06684283  0.53002396  1.0
  Ti  Ti2893  1  0.21042434  0.23350949  0.53002396  1.0
  Ti  Ti2894  1  0.21042434  0.40017616  0.53002396  1.0
  Ti  Ti2895  1  0.21042434  0.56684283  0.53002396  1.0
  Ti  Ti2896  1  0.21042434  0.73350949  0.53002396  1.0
  Ti  Ti2897  1  0.21042434  0.90017616  0.53002396  1.0
  Ti  Ti2898  1  0.29375767  0.06684283  0.53002396  1.0
  Ti  Ti2899  1  0.29375767  0.23350949  0.53002396  1.0
  Ti  Ti2900  1  0.29375767  0.40017616  0.53002396  1.0
  Ti  Ti2901  1  0.29375767  0.56684283  0.53002396  1.0
  Ti  Ti2902  1  0.29375767  0.73350949  0.53002396  1.0
  Ti  Ti2903  1  0.29375767  0.90017616  0.53002396  1.0
  Ti  Ti2904  1  0.37709100  0.06684283  0.53002396  1.0
  Ti  Ti2905  1  0.37709100  0.23350949  0.53002396  1.0
  Ti  Ti2906  1  0.37709100  0.40017616  0.53002396  1.0
  Ti  Ti2907  1  0.37709100  0.56684283  0.53002396  1.0
  Ti  Ti2908  1  0.37709100  0.73350949  0.53002396  1.0
  Ti  Ti2909  1  0.37709100  0.90017616  0.53002396  1.0
  Ti  Ti2910  1  0.46042434  0.06684283  0.53002396  1.0
  Ti  Ti2911  1  0.46042434  0.23350949  0.53002396  1.0
  Ti  Ti2912  1  0.46042434  0.40017616  0.53002396  1.0
  Ti  Ti2913  1  0.46042434  0.56684283  0.53002396  1.0
  Ti  Ti2914  1  0.46042434  0.73350949  0.53002396  1.0
  Ti  Ti2915  1  0.46042434  0.90017616  0.53002396  1.0
  Ti  Ti2916  1  0.54375767  0.06684283  0.53002396  1.0
  Ti  Ti2917  1  0.54375767  0.23350949  0.53002396  1.0
  Ti  Ti2918  1  0.54375767  0.40017616  0.53002396  1.0
  Ti  Ti2919  1  0.54375767  0.56684283  0.53002396  1.0
  Ti  Ti2920  1  0.54375767  0.73350949  0.53002396  1.0
  Ti  Ti2921  1  0.54375767  0.90017616  0.53002396  1.0
  Ti  Ti2922  1  0.62709100  0.06684283  0.53002396  1.0
  Ti  Ti2923  1  0.62709100  0.23350949  0.53002396  1.0
  Ti  Ti2924  1  0.62709100  0.40017616  0.53002396  1.0
  Ti  Ti2925  1  0.62709100  0.56684283  0.53002396  1.0
  Ti  Ti2926  1  0.62709100  0.73350949  0.53002396  1.0
  Ti  Ti2927  1  0.62709100  0.90017616  0.53002396  1.0
  Ti  Ti2928  1  0.71042434  0.06684283  0.53002396  1.0
  Ti  Ti2929  1  0.71042434  0.23350949  0.53002396  1.0
  Ti  Ti2930  1  0.71042434  0.40017616  0.53002396  1.0
  Ti  Ti2931  1  0.71042434  0.56684283  0.53002396  1.0
  Ti  Ti2932  1  0.71042434  0.73350949  0.53002396  1.0
  Ti  Ti2933  1  0.71042434  0.90017616  0.53002396  1.0
  Ti  Ti2934  1  0.79375767  0.06684283  0.53002396  1.0
  Ti  Ti2935  1  0.79375767  0.23350949  0.53002396  1.0
  Ti  Ti2936  1  0.79375767  0.40017616  0.53002396  1.0
  Ti  Ti2937  1  0.79375767  0.56684283  0.53002396  1.0
  Ti  Ti2938  1  0.79375767  0.73350949  0.53002396  1.0
  Ti  Ti2939  1  0.79375767  0.90017616  0.53002396  1.0
  Ti  Ti2940  1  0.87709100  0.06684283  0.53002396  1.0
  Ti  Ti2941  1  0.87709100  0.23350949  0.53002396  1.0
  Ti  Ti2942  1  0.87709100  0.40017616  0.53002396  1.0
  Ti  Ti2943  1  0.87709100  0.56684283  0.53002396  1.0
  Ti  Ti2944  1  0.87709100  0.73350949  0.53002396  1.0
  Ti  Ti2945  1  0.87709100  0.90017616  0.53002396  1.0
  Ti  Ti2946  1  0.96042434  0.06684283  0.53002396  1.0
  Ti  Ti2947  1  0.96042434  0.23350949  0.53002396  1.0
  Ti  Ti2948  1  0.96042434  0.40017616  0.53002396  1.0
  Ti  Ti2949  1  0.96042434  0.56684283  0.53002396  1.0
  Ti  Ti2950  1  0.96042434  0.73350949  0.53002396  1.0
  Ti  Ti2951  1  0.96042434  0.90017616  0.53002396  1.0
  Ti  Ti2952  1  0.01994815  0.05493806  0.60145253  1.0
  Ti  Ti2953  1  0.01994815  0.22160473  0.60145253  1.0
  Ti  Ti2954  1  0.01994815  0.38827140  0.60145253  1.0
  Ti  Ti2955  1  0.01994815  0.55493806  0.60145253  1.0
  Ti  Ti2956  1  0.01994815  0.72160473  0.60145253  1.0
  Ti  Ti2957  1  0.01994815  0.88827140  0.60145253  1.0
  Ti  Ti2958  1  0.10328148  0.05493806  0.60145253  1.0
  Ti  Ti2959  1  0.10328148  0.22160473  0.60145253  1.0
  Ti  Ti2960  1  0.10328148  0.38827140  0.60145253  1.0
  Ti  Ti2961  1  0.10328148  0.55493806  0.60145253  1.0
  Ti  Ti2962  1  0.10328148  0.72160473  0.60145253  1.0
  Ti  Ti2963  1  0.10328148  0.88827140  0.60145253  1.0
  Ti  Ti2964  1  0.18661481  0.05493806  0.60145253  1.0
  Ti  Ti2965  1  0.18661481  0.22160473  0.60145253  1.0
  Ti  Ti2966  1  0.18661481  0.38827140  0.60145253  1.0
  Ti  Ti2967  1  0.18661481  0.55493806  0.60145253  1.0
  Ti  Ti2968  1  0.18661481  0.72160473  0.60145253  1.0
  Ti  Ti2969  1  0.18661481  0.88827140  0.60145253  1.0
  Ti  Ti2970  1  0.26994815  0.05493806  0.60145253  1.0
  Ti  Ti2971  1  0.26994815  0.22160473  0.60145253  1.0
  Ti  Ti2972  1  0.26994815  0.38827140  0.60145253  1.0
  Ti  Ti2973  1  0.26994815  0.55493806  0.60145253  1.0
  Ti  Ti2974  1  0.26994815  0.72160473  0.60145253  1.0
  Ti  Ti2975  1  0.26994815  0.88827140  0.60145253  1.0
  Ti  Ti2976  1  0.35328148  0.05493806  0.60145253  1.0
  Ti  Ti2977  1  0.35328148  0.22160473  0.60145253  1.0
  Ti  Ti2978  1  0.35328148  0.38827140  0.60145253  1.0
  Ti  Ti2979  1  0.35328148  0.55493806  0.60145253  1.0
  Ti  Ti2980  1  0.35328148  0.72160473  0.60145253  1.0
  Ti  Ti2981  1  0.35328148  0.88827140  0.60145253  1.0
  Ti  Ti2982  1  0.43661481  0.05493806  0.60145253  1.0
  Ti  Ti2983  1  0.43661481  0.22160473  0.60145253  1.0
  Ti  Ti2984  1  0.43661481  0.38827140  0.60145253  1.0
  Ti  Ti2985  1  0.43661481  0.55493806  0.60145253  1.0
  Ti  Ti2986  1  0.43661481  0.72160473  0.60145253  1.0
  Ti  Ti2987  1  0.43661481  0.88827140  0.60145253  1.0
  Ti  Ti2988  1  0.51994815  0.05493806  0.60145253  1.0
  Ti  Ti2989  1  0.51994815  0.22160473  0.60145253  1.0
  Ti  Ti2990  1  0.51994815  0.38827140  0.60145253  1.0
  Ti  Ti2991  1  0.51994815  0.55493806  0.60145253  1.0
  Ti  Ti2992  1  0.51994815  0.72160473  0.60145253  1.0
  Ti  Ti2993  1  0.51994815  0.88827140  0.60145253  1.0
  Ti  Ti2994  1  0.60328148  0.05493806  0.60145253  1.0
  Ti  Ti2995  1  0.60328148  0.22160473  0.60145253  1.0
  Ti  Ti2996  1  0.60328148  0.38827140  0.60145253  1.0
  Ti  Ti2997  1  0.60328148  0.55493806  0.60145253  1.0
  Ti  Ti2998  1  0.60328148  0.72160473  0.60145253  1.0
  Ti  Ti2999  1  0.60328148  0.88827140  0.60145253  1.0
  Ti  Ti3000  1  0.68661481  0.05493806  0.60145253  1.0
  Ti  Ti3001  1  0.68661481  0.22160473  0.60145253  1.0
  Ti  Ti3002  1  0.68661481  0.38827140  0.60145253  1.0
  Ti  Ti3003  1  0.68661481  0.55493806  0.60145253  1.0
  Ti  Ti3004  1  0.68661481  0.72160473  0.60145253  1.0
  Ti  Ti3005  1  0.68661481  0.88827140  0.60145253  1.0
  Ti  Ti3006  1  0.76994815  0.05493806  0.60145253  1.0
  Ti  Ti3007  1  0.76994815  0.22160473  0.60145253  1.0
  Ti  Ti3008  1  0.76994815  0.38827140  0.60145253  1.0
  Ti  Ti3009  1  0.76994815  0.55493806  0.60145253  1.0
  Ti  Ti3010  1  0.76994815  0.72160473  0.60145253  1.0
  Ti  Ti3011  1  0.76994815  0.88827140  0.60145253  1.0
  Ti  Ti3012  1  0.85328148  0.05493806  0.60145253  1.0
  Ti  Ti3013  1  0.85328148  0.22160473  0.60145253  1.0
  Ti  Ti3014  1  0.85328148  0.38827140  0.60145253  1.0
  Ti  Ti3015  1  0.85328148  0.55493806  0.60145253  1.0
  Ti  Ti3016  1  0.85328148  0.72160473  0.60145253  1.0
  Ti  Ti3017  1  0.85328148  0.88827140  0.60145253  1.0
  Ti  Ti3018  1  0.93661481  0.05493806  0.60145253  1.0
  Ti  Ti3019  1  0.93661481  0.22160473  0.60145253  1.0
  Ti  Ti3020  1  0.93661481  0.38827140  0.60145253  1.0
  Ti  Ti3021  1  0.93661481  0.55493806  0.60145253  1.0
  Ti  Ti3022  1  0.93661481  0.72160473  0.60145253  1.0
  Ti  Ti3023  1  0.93661481  0.88827140  0.60145253  1.0
  Ti  Ti3024  1  0.04900731  0.14079035  0.50847890  1.0
  Ti  Ti3025  1  0.04900731  0.30745702  0.50847890  1.0
  Ti  Ti3026  1  0.04900731  0.47412369  0.50847890  1.0
  Ti  Ti3027  1  0.04900731  0.64079035  0.50847890  1.0
  Ti  Ti3028  1  0.04900731  0.80745702  0.50847890  1.0
  Ti  Ti3029  1  0.04900731  0.97412369  0.50847890  1.0
  Ti  Ti3030  1  0.13234065  0.14079035  0.50847890  1.0
  Ti  Ti3031  1  0.13234065  0.30745702  0.50847890  1.0
  Ti  Ti3032  1  0.13234065  0.47412369  0.50847890  1.0
  Ti  Ti3033  1  0.13234065  0.64079035  0.50847890  1.0
  Ti  Ti3034  1  0.13234065  0.80745702  0.50847890  1.0
  Ti  Ti3035  1  0.13234065  0.97412369  0.50847890  1.0
  Ti  Ti3036  1  0.21567398  0.14079035  0.50847890  1.0
  Ti  Ti3037  1  0.21567398  0.30745702  0.50847890  1.0
  Ti  Ti3038  1  0.21567398  0.47412369  0.50847890  1.0
  Ti  Ti3039  1  0.21567398  0.64079035  0.50847890  1.0
  Ti  Ti3040  1  0.21567398  0.80745702  0.50847890  1.0
  Ti  Ti3041  1  0.21567398  0.97412369  0.50847890  1.0
  Ti  Ti3042  1  0.29900731  0.14079035  0.50847890  1.0
  Ti  Ti3043  1  0.29900731  0.30745702  0.50847890  1.0
  Ti  Ti3044  1  0.29900731  0.47412369  0.50847890  1.0
  Ti  Ti3045  1  0.29900731  0.64079035  0.50847890  1.0
  Ti  Ti3046  1  0.29900731  0.80745702  0.50847890  1.0
  Ti  Ti3047  1  0.29900731  0.97412369  0.50847890  1.0
  Ti  Ti3048  1  0.38234065  0.14079035  0.50847890  1.0
  Ti  Ti3049  1  0.38234065  0.30745702  0.50847890  1.0
  Ti  Ti3050  1  0.38234065  0.47412369  0.50847890  1.0
  Ti  Ti3051  1  0.38234065  0.64079035  0.50847890  1.0
  Ti  Ti3052  1  0.38234065  0.80745702  0.50847890  1.0
  Ti  Ti3053  1  0.38234065  0.97412369  0.50847890  1.0
  Ti  Ti3054  1  0.46567398  0.14079035  0.50847890  1.0
  Ti  Ti3055  1  0.46567398  0.30745702  0.50847890  1.0
  Ti  Ti3056  1  0.46567398  0.47412369  0.50847890  1.0
  Ti  Ti3057  1  0.46567398  0.64079035  0.50847890  1.0
  Ti  Ti3058  1  0.46567398  0.80745702  0.50847890  1.0
  Ti  Ti3059  1  0.46567398  0.97412369  0.50847890  1.0
  Ti  Ti3060  1  0.54900731  0.14079035  0.50847890  1.0
  Ti  Ti3061  1  0.54900731  0.30745702  0.50847890  1.0
  Ti  Ti3062  1  0.54900731  0.47412369  0.50847890  1.0
  Ti  Ti3063  1  0.54900731  0.64079035  0.50847890  1.0
  Ti  Ti3064  1  0.54900731  0.80745702  0.50847890  1.0
  Ti  Ti3065  1  0.54900731  0.97412369  0.50847890  1.0
  Ti  Ti3066  1  0.63234065  0.14079035  0.50847890  1.0
  Ti  Ti3067  1  0.63234065  0.30745702  0.50847890  1.0
  Ti  Ti3068  1  0.63234065  0.47412369  0.50847890  1.0
  Ti  Ti3069  1  0.63234065  0.64079035  0.50847890  1.0
  Ti  Ti3070  1  0.63234065  0.80745702  0.50847890  1.0
  Ti  Ti3071  1  0.63234065  0.97412369  0.50847890  1.0
  Ti  Ti3072  1  0.71567398  0.14079035  0.50847890  1.0
  Ti  Ti3073  1  0.71567398  0.30745702  0.50847890  1.0
  Ti  Ti3074  1  0.71567398  0.47412369  0.50847890  1.0
  Ti  Ti3075  1  0.71567398  0.64079035  0.50847890  1.0
  Ti  Ti3076  1  0.71567398  0.80745702  0.50847890  1.0
  Ti  Ti3077  1  0.71567398  0.97412369  0.50847890  1.0
  Ti  Ti3078  1  0.79900731  0.14079035  0.50847890  1.0
  Ti  Ti3079  1  0.79900731  0.30745702  0.50847890  1.0
  Ti  Ti3080  1  0.79900731  0.47412369  0.50847890  1.0
  Ti  Ti3081  1  0.79900731  0.64079035  0.50847890  1.0
  Ti  Ti3082  1  0.79900731  0.80745702  0.50847890  1.0
  Ti  Ti3083  1  0.79900731  0.97412369  0.50847890  1.0
  Ti  Ti3084  1  0.88234065  0.14079035  0.50847890  1.0
  Ti  Ti3085  1  0.88234065  0.30745702  0.50847890  1.0
  Ti  Ti3086  1  0.88234065  0.47412369  0.50847890  1.0
  Ti  Ti3087  1  0.88234065  0.64079035  0.50847890  1.0
  Ti  Ti3088  1  0.88234065  0.80745702  0.50847890  1.0
  Ti  Ti3089  1  0.88234065  0.97412369  0.50847890  1.0
  Ti  Ti3090  1  0.96567398  0.14079035  0.50847890  1.0
  Ti  Ti3091  1  0.96567398  0.30745702  0.50847890  1.0
  Ti  Ti3092  1  0.96567398  0.47412369  0.50847890  1.0
  Ti  Ti3093  1  0.96567398  0.64079035  0.50847890  1.0
  Ti  Ti3094  1  0.96567398  0.80745702  0.50847890  1.0
  Ti  Ti3095  1  0.96567398  0.97412369  0.50847890  1.0
  Ti  Ti3096  1  0.02519779  0.12888559  0.57990747  1.0
  Ti  Ti3097  1  0.02519779  0.29555226  0.57990747  1.0
  Ti  Ti3098  1  0.02519779  0.46221893  0.57990747  1.0
  Ti  Ti3099  1  0.02519779  0.62888559  0.57990747  1.0
  Ti  Ti3100  1  0.02519779  0.79555226  0.57990747  1.0
  Ti  Ti3101  1  0.02519779  0.96221893  0.57990747  1.0
  Ti  Ti3102  1  0.10853112  0.12888559  0.57990747  1.0
  Ti  Ti3103  1  0.10853112  0.29555226  0.57990747  1.0
  Ti  Ti3104  1  0.10853112  0.46221893  0.57990747  1.0
  Ti  Ti3105  1  0.10853112  0.62888559  0.57990747  1.0
  Ti  Ti3106  1  0.10853112  0.79555226  0.57990747  1.0
  Ti  Ti3107  1  0.10853112  0.96221893  0.57990747  1.0
  Ti  Ti3108  1  0.19186445  0.12888559  0.57990747  1.0
  Ti  Ti3109  1  0.19186445  0.29555226  0.57990747  1.0
  Ti  Ti3110  1  0.19186445  0.46221893  0.57990747  1.0
  Ti  Ti3111  1  0.19186445  0.62888559  0.57990747  1.0
  Ti  Ti3112  1  0.19186445  0.79555226  0.57990747  1.0
  Ti  Ti3113  1  0.19186445  0.96221893  0.57990747  1.0
  Ti  Ti3114  1  0.27519779  0.12888559  0.57990747  1.0
  Ti  Ti3115  1  0.27519779  0.29555226  0.57990747  1.0
  Ti  Ti3116  1  0.27519779  0.46221893  0.57990747  1.0
  Ti  Ti3117  1  0.27519779  0.62888559  0.57990747  1.0
  Ti  Ti3118  1  0.27519779  0.79555226  0.57990747  1.0
  Ti  Ti3119  1  0.27519779  0.96221893  0.57990747  1.0
  Ti  Ti3120  1  0.35853112  0.12888559  0.57990747  1.0
  Ti  Ti3121  1  0.35853112  0.29555226  0.57990747  1.0
  Ti  Ti3122  1  0.35853112  0.46221893  0.57990747  1.0
  Ti  Ti3123  1  0.35853112  0.62888559  0.57990747  1.0
  Ti  Ti3124  1  0.35853112  0.79555226  0.57990747  1.0
  Ti  Ti3125  1  0.35853112  0.96221893  0.57990747  1.0
  Ti  Ti3126  1  0.44186445  0.12888559  0.57990747  1.0
  Ti  Ti3127  1  0.44186445  0.29555226  0.57990747  1.0
  Ti  Ti3128  1  0.44186445  0.46221893  0.57990747  1.0
  Ti  Ti3129  1  0.44186445  0.62888559  0.57990747  1.0
  Ti  Ti3130  1  0.44186445  0.79555226  0.57990747  1.0
  Ti  Ti3131  1  0.44186445  0.96221893  0.57990747  1.0
  Ti  Ti3132  1  0.52519779  0.12888559  0.57990747  1.0
  Ti  Ti3133  1  0.52519779  0.29555226  0.57990747  1.0
  Ti  Ti3134  1  0.52519779  0.46221893  0.57990747  1.0
  Ti  Ti3135  1  0.52519779  0.62888559  0.57990747  1.0
  Ti  Ti3136  1  0.52519779  0.79555226  0.57990747  1.0
  Ti  Ti3137  1  0.52519779  0.96221893  0.57990747  1.0
  Ti  Ti3138  1  0.60853112  0.12888559  0.57990747  1.0
  Ti  Ti3139  1  0.60853112  0.29555226  0.57990747  1.0
  Ti  Ti3140  1  0.60853112  0.46221893  0.57990747  1.0
  Ti  Ti3141  1  0.60853112  0.62888559  0.57990747  1.0
  Ti  Ti3142  1  0.60853112  0.79555226  0.57990747  1.0
  Ti  Ti3143  1  0.60853112  0.96221893  0.57990747  1.0
  Ti  Ti3144  1  0.69186445  0.12888559  0.57990747  1.0
  Ti  Ti3145  1  0.69186445  0.29555226  0.57990747  1.0
  Ti  Ti3146  1  0.69186445  0.46221893  0.57990747  1.0
  Ti  Ti3147  1  0.69186445  0.62888559  0.57990747  1.0
  Ti  Ti3148  1  0.69186445  0.79555226  0.57990747  1.0
  Ti  Ti3149  1  0.69186445  0.96221893  0.57990747  1.0
  Ti  Ti3150  1  0.77519779  0.12888559  0.57990747  1.0
  Ti  Ti3151  1  0.77519779  0.29555226  0.57990747  1.0
  Ti  Ti3152  1  0.77519779  0.46221893  0.57990747  1.0
  Ti  Ti3153  1  0.77519779  0.62888559  0.57990747  1.0
  Ti  Ti3154  1  0.77519779  0.79555226  0.57990747  1.0
  Ti  Ti3155  1  0.77519779  0.96221893  0.57990747  1.0
  Ti  Ti3156  1  0.85853112  0.12888559  0.57990747  1.0
  Ti  Ti3157  1  0.85853112  0.29555226  0.57990747  1.0
  Ti  Ti3158  1  0.85853112  0.46221893  0.57990747  1.0
  Ti  Ti3159  1  0.85853112  0.62888559  0.57990747  1.0
  Ti  Ti3160  1  0.85853112  0.79555226  0.57990747  1.0
  Ti  Ti3161  1  0.85853112  0.96221893  0.57990747  1.0
  Ti  Ti3162  1  0.94186445  0.12888559  0.57990747  1.0
  Ti  Ti3163  1  0.94186445  0.29555226  0.57990747  1.0
  Ti  Ti3164  1  0.94186445  0.46221893  0.57990747  1.0
  Ti  Ti3165  1  0.94186445  0.62888559  0.57990747  1.0
  Ti  Ti3166  1  0.94186445  0.79555226  0.57990747  1.0
  Ti  Ti3167  1  0.94186445  0.96221893  0.57990747  1.0
  Ti  Ti3168  1  0.04819952  0.02059695  0.51887712  1.0
  Ti  Ti3169  1  0.04819952  0.18726362  0.51887712  1.0
  Ti  Ti3170  1  0.04819952  0.35393028  0.51887712  1.0
  Ti  Ti3171  1  0.04819952  0.52059695  0.51887712  1.0
  Ti  Ti3172  1  0.04819952  0.68726362  0.51887712  1.0
  Ti  Ti3173  1  0.04819952  0.85393028  0.51887712  1.0
  Ti  Ti3174  1  0.13153286  0.02059695  0.51887712  1.0
  Ti  Ti3175  1  0.13153286  0.18726362  0.51887712  1.0
  Ti  Ti3176  1  0.13153286  0.35393028  0.51887712  1.0
  Ti  Ti3177  1  0.13153286  0.52059695  0.51887712  1.0
  Ti  Ti3178  1  0.13153286  0.68726362  0.51887712  1.0
  Ti  Ti3179  1  0.13153286  0.85393028  0.51887712  1.0
  Ti  Ti3180  1  0.21486619  0.02059695  0.51887712  1.0
  Ti  Ti3181  1  0.21486619  0.18726362  0.51887712  1.0
  Ti  Ti3182  1  0.21486619  0.35393028  0.51887712  1.0
  Ti  Ti3183  1  0.21486619  0.52059695  0.51887712  1.0
  Ti  Ti3184  1  0.21486619  0.68726362  0.51887712  1.0
  Ti  Ti3185  1  0.21486619  0.85393028  0.51887712  1.0
  Ti  Ti3186  1  0.29819952  0.02059695  0.51887712  1.0
  Ti  Ti3187  1  0.29819952  0.18726362  0.51887712  1.0
  Ti  Ti3188  1  0.29819952  0.35393028  0.51887712  1.0
  Ti  Ti3189  1  0.29819952  0.52059695  0.51887712  1.0
  Ti  Ti3190  1  0.29819952  0.68726362  0.51887712  1.0
  Ti  Ti3191  1  0.29819952  0.85393028  0.51887712  1.0
  Ti  Ti3192  1  0.38153286  0.02059695  0.51887712  1.0
  Ti  Ti3193  1  0.38153286  0.18726362  0.51887712  1.0
  Ti  Ti3194  1  0.38153286  0.35393028  0.51887712  1.0
  Ti  Ti3195  1  0.38153286  0.52059695  0.51887712  1.0
  Ti  Ti3196  1  0.38153286  0.68726362  0.51887712  1.0
  Ti  Ti3197  1  0.38153286  0.85393028  0.51887712  1.0
  Ti  Ti3198  1  0.46486619  0.02059695  0.51887712  1.0
  Ti  Ti3199  1  0.46486619  0.18726362  0.51887712  1.0
  Ti  Ti3200  1  0.46486619  0.35393028  0.51887712  1.0
  Ti  Ti3201  1  0.46486619  0.52059695  0.51887712  1.0
  Ti  Ti3202  1  0.46486619  0.68726362  0.51887712  1.0
  Ti  Ti3203  1  0.46486619  0.85393028  0.51887712  1.0
  Ti  Ti3204  1  0.54819952  0.02059695  0.51887712  1.0
  Ti  Ti3205  1  0.54819952  0.18726362  0.51887712  1.0
  Ti  Ti3206  1  0.54819952  0.35393028  0.51887712  1.0
  Ti  Ti3207  1  0.54819952  0.52059695  0.51887712  1.0
  Ti  Ti3208  1  0.54819952  0.68726362  0.51887712  1.0
  Ti  Ti3209  1  0.54819952  0.85393028  0.51887712  1.0
  Ti  Ti3210  1  0.63153286  0.02059695  0.51887712  1.0
  Ti  Ti3211  1  0.63153286  0.18726362  0.51887712  1.0
  Ti  Ti3212  1  0.63153286  0.35393028  0.51887712  1.0
  Ti  Ti3213  1  0.63153286  0.52059695  0.51887712  1.0
  Ti  Ti3214  1  0.63153286  0.68726362  0.51887712  1.0
  Ti  Ti3215  1  0.63153286  0.85393028  0.51887712  1.0
  Ti  Ti3216  1  0.71486619  0.02059695  0.51887712  1.0
  Ti  Ti3217  1  0.71486619  0.18726362  0.51887712  1.0
  Ti  Ti3218  1  0.71486619  0.35393028  0.51887712  1.0
  Ti  Ti3219  1  0.71486619  0.52059695  0.51887712  1.0
  Ti  Ti3220  1  0.71486619  0.68726362  0.51887712  1.0
  Ti  Ti3221  1  0.71486619  0.85393028  0.51887712  1.0
  Ti  Ti3222  1  0.79819952  0.02059695  0.51887712  1.0
  Ti  Ti3223  1  0.79819952  0.18726362  0.51887712  1.0
  Ti  Ti3224  1  0.79819952  0.35393028  0.51887712  1.0
  Ti  Ti3225  1  0.79819952  0.52059695  0.51887712  1.0
  Ti  Ti3226  1  0.79819952  0.68726362  0.51887712  1.0
  Ti  Ti3227  1  0.79819952  0.85393028  0.51887712  1.0
  Ti  Ti3228  1  0.88153286  0.02059695  0.51887712  1.0
  Ti  Ti3229  1  0.88153286  0.18726362  0.51887712  1.0
  Ti  Ti3230  1  0.88153286  0.35393028  0.51887712  1.0
  Ti  Ti3231  1  0.88153286  0.52059695  0.51887712  1.0
  Ti  Ti3232  1  0.88153286  0.68726362  0.51887712  1.0
  Ti  Ti3233  1  0.88153286  0.85393028  0.51887712  1.0
  Ti  Ti3234  1  0.96486619  0.02059695  0.51887712  1.0
  Ti  Ti3235  1  0.96486619  0.18726362  0.51887712  1.0
  Ti  Ti3236  1  0.96486619  0.35393028  0.51887712  1.0
  Ti  Ti3237  1  0.96486619  0.52059695  0.51887712  1.0
  Ti  Ti3238  1  0.96486619  0.68726362  0.51887712  1.0
  Ti  Ti3239  1  0.96486619  0.85393028  0.51887712  1.0
  Ti  Ti3240  1  0.02439000  0.00869219  0.59030569  1.0
  Ti  Ti3241  1  0.02439000  0.17535886  0.59030569  1.0
  Ti  Ti3242  1  0.02439000  0.34202552  0.59030569  1.0
  Ti  Ti3243  1  0.02439000  0.50869219  0.59030569  1.0
  Ti  Ti3244  1  0.02439000  0.67535886  0.59030569  1.0
  Ti  Ti3245  1  0.02439000  0.84202552  0.59030569  1.0
  Ti  Ti3246  1  0.10772333  0.00869219  0.59030569  1.0
  Ti  Ti3247  1  0.10772333  0.17535886  0.59030569  1.0
  Ti  Ti3248  1  0.10772333  0.34202552  0.59030569  1.0
  Ti  Ti3249  1  0.10772333  0.50869219  0.59030569  1.0
  Ti  Ti3250  1  0.10772333  0.67535886  0.59030569  1.0
  Ti  Ti3251  1  0.10772333  0.84202552  0.59030569  1.0
  Ti  Ti3252  1  0.19105667  0.00869219  0.59030569  1.0
  Ti  Ti3253  1  0.19105667  0.17535886  0.59030569  1.0
  Ti  Ti3254  1  0.19105667  0.34202552  0.59030569  1.0
  Ti  Ti3255  1  0.19105667  0.50869219  0.59030569  1.0
  Ti  Ti3256  1  0.19105667  0.67535886  0.59030569  1.0
  Ti  Ti3257  1  0.19105667  0.84202552  0.59030569  1.0
  Ti  Ti3258  1  0.27439000  0.00869219  0.59030569  1.0
  Ti  Ti3259  1  0.27439000  0.17535886  0.59030569  1.0
  Ti  Ti3260  1  0.27439000  0.34202552  0.59030569  1.0
  Ti  Ti3261  1  0.27439000  0.50869219  0.59030569  1.0
  Ti  Ti3262  1  0.27439000  0.67535886  0.59030569  1.0
  Ti  Ti3263  1  0.27439000  0.84202552  0.59030569  1.0
  Ti  Ti3264  1  0.35772333  0.00869219  0.59030569  1.0
  Ti  Ti3265  1  0.35772333  0.17535886  0.59030569  1.0
  Ti  Ti3266  1  0.35772333  0.34202552  0.59030569  1.0
  Ti  Ti3267  1  0.35772333  0.50869219  0.59030569  1.0
  Ti  Ti3268  1  0.35772333  0.67535886  0.59030569  1.0
  Ti  Ti3269  1  0.35772333  0.84202552  0.59030569  1.0
  Ti  Ti3270  1  0.44105667  0.00869219  0.59030569  1.0
  Ti  Ti3271  1  0.44105667  0.17535886  0.59030569  1.0
  Ti  Ti3272  1  0.44105667  0.34202552  0.59030569  1.0
  Ti  Ti3273  1  0.44105667  0.50869219  0.59030569  1.0
  Ti  Ti3274  1  0.44105667  0.67535886  0.59030569  1.0
  Ti  Ti3275  1  0.44105667  0.84202552  0.59030569  1.0
  Ti  Ti3276  1  0.52439000  0.00869219  0.59030569  1.0
  Ti  Ti3277  1  0.52439000  0.17535886  0.59030569  1.0
  Ti  Ti3278  1  0.52439000  0.34202552  0.59030569  1.0
  Ti  Ti3279  1  0.52439000  0.50869219  0.59030569  1.0
  Ti  Ti3280  1  0.52439000  0.67535886  0.59030569  1.0
  Ti  Ti3281  1  0.52439000  0.84202552  0.59030569  1.0
  Ti  Ti3282  1  0.60772333  0.00869219  0.59030569  1.0
  Ti  Ti3283  1  0.60772333  0.17535886  0.59030569  1.0
  Ti  Ti3284  1  0.60772333  0.34202552  0.59030569  1.0
  Ti  Ti3285  1  0.60772333  0.50869219  0.59030569  1.0
  Ti  Ti3286  1  0.60772333  0.67535886  0.59030569  1.0
  Ti  Ti3287  1  0.60772333  0.84202552  0.59030569  1.0
  Ti  Ti3288  1  0.69105667  0.00869219  0.59030569  1.0
  Ti  Ti3289  1  0.69105667  0.17535886  0.59030569  1.0
  Ti  Ti3290  1  0.69105667  0.34202552  0.59030569  1.0
  Ti  Ti3291  1  0.69105667  0.50869219  0.59030569  1.0
  Ti  Ti3292  1  0.69105667  0.67535886  0.59030569  1.0
  Ti  Ti3293  1  0.69105667  0.84202552  0.59030569  1.0
  Ti  Ti3294  1  0.77439000  0.00869219  0.59030569  1.0
  Ti  Ti3295  1  0.77439000  0.17535886  0.59030569  1.0
  Ti  Ti3296  1  0.77439000  0.34202552  0.59030569  1.0
  Ti  Ti3297  1  0.77439000  0.50869219  0.59030569  1.0
  Ti  Ti3298  1  0.77439000  0.67535886  0.59030569  1.0
  Ti  Ti3299  1  0.77439000  0.84202552  0.59030569  1.0
  Ti  Ti3300  1  0.85772333  0.00869219  0.59030569  1.0
  Ti  Ti3301  1  0.85772333  0.17535886  0.59030569  1.0
  Ti  Ti3302  1  0.85772333  0.34202552  0.59030569  1.0
  Ti  Ti3303  1  0.85772333  0.50869219  0.59030569  1.0
  Ti  Ti3304  1  0.85772333  0.67535886  0.59030569  1.0
  Ti  Ti3305  1  0.85772333  0.84202552  0.59030569  1.0
  Ti  Ti3306  1  0.94105667  0.00869219  0.59030569  1.0
  Ti  Ti3307  1  0.94105667  0.17535886  0.59030569  1.0
  Ti  Ti3308  1  0.94105667  0.34202552  0.59030569  1.0
  Ti  Ti3309  1  0.94105667  0.50869219  0.59030569  1.0
  Ti  Ti3310  1  0.94105667  0.67535886  0.59030569  1.0
  Ti  Ti3311  1  0.94105667  0.84202552  0.59030569  1.0
  Ti  Ti3312  1  0.01167570  0.12096425  0.50287992  1.0
  Ti  Ti3313  1  0.01167570  0.28763092  0.50287992  1.0
  Ti  Ti3314  1  0.01167570  0.45429758  0.50287992  1.0
  Ti  Ti3315  1  0.01167570  0.62096425  0.50287992  1.0
  Ti  Ti3316  1  0.01167570  0.78763092  0.50287992  1.0
  Ti  Ti3317  1  0.01167570  0.95429758  0.50287992  1.0
  Ti  Ti3318  1  0.09500904  0.12096425  0.50287992  1.0
  Ti  Ti3319  1  0.09500904  0.28763092  0.50287992  1.0
  Ti  Ti3320  1  0.09500904  0.45429758  0.50287992  1.0
  Ti  Ti3321  1  0.09500904  0.62096425  0.50287992  1.0
  Ti  Ti3322  1  0.09500904  0.78763092  0.50287992  1.0
  Ti  Ti3323  1  0.09500904  0.95429758  0.50287992  1.0
  Ti  Ti3324  1  0.17834237  0.12096425  0.50287992  1.0
  Ti  Ti3325  1  0.17834237  0.28763092  0.50287992  1.0
  Ti  Ti3326  1  0.17834237  0.45429758  0.50287992  1.0
  Ti  Ti3327  1  0.17834237  0.62096425  0.50287992  1.0
  Ti  Ti3328  1  0.17834237  0.78763092  0.50287992  1.0
  Ti  Ti3329  1  0.17834237  0.95429758  0.50287992  1.0
  Ti  Ti3330  1  0.26167570  0.12096425  0.50287992  1.0
  Ti  Ti3331  1  0.26167570  0.28763092  0.50287992  1.0
  Ti  Ti3332  1  0.26167570  0.45429758  0.50287992  1.0
  Ti  Ti3333  1  0.26167570  0.62096425  0.50287992  1.0
  Ti  Ti3334  1  0.26167570  0.78763092  0.50287992  1.0
  Ti  Ti3335  1  0.26167570  0.95429758  0.50287992  1.0
  Ti  Ti3336  1  0.34500904  0.12096425  0.50287992  1.0
  Ti  Ti3337  1  0.34500904  0.28763092  0.50287992  1.0
  Ti  Ti3338  1  0.34500904  0.45429758  0.50287992  1.0
  Ti  Ti3339  1  0.34500904  0.62096425  0.50287992  1.0
  Ti  Ti3340  1  0.34500904  0.78763092  0.50287992  1.0
  Ti  Ti3341  1  0.34500904  0.95429758  0.50287992  1.0
  Ti  Ti3342  1  0.42834237  0.12096425  0.50287992  1.0
  Ti  Ti3343  1  0.42834237  0.28763092  0.50287992  1.0
  Ti  Ti3344  1  0.42834237  0.45429758  0.50287992  1.0
  Ti  Ti3345  1  0.42834237  0.62096425  0.50287992  1.0
  Ti  Ti3346  1  0.42834237  0.78763092  0.50287992  1.0
  Ti  Ti3347  1  0.42834237  0.95429758  0.50287992  1.0
  Ti  Ti3348  1  0.51167570  0.12096425  0.50287992  1.0
  Ti  Ti3349  1  0.51167570  0.28763092  0.50287992  1.0
  Ti  Ti3350  1  0.51167570  0.45429758  0.50287992  1.0
  Ti  Ti3351  1  0.51167570  0.62096425  0.50287992  1.0
  Ti  Ti3352  1  0.51167570  0.78763092  0.50287992  1.0
  Ti  Ti3353  1  0.51167570  0.95429758  0.50287992  1.0
  Ti  Ti3354  1  0.59500904  0.12096425  0.50287992  1.0
  Ti  Ti3355  1  0.59500904  0.28763092  0.50287992  1.0
  Ti  Ti3356  1  0.59500904  0.45429758  0.50287992  1.0
  Ti  Ti3357  1  0.59500904  0.62096425  0.50287992  1.0
  Ti  Ti3358  1  0.59500904  0.78763092  0.50287992  1.0
  Ti  Ti3359  1  0.59500904  0.95429758  0.50287992  1.0
  Ti  Ti3360  1  0.67834237  0.12096425  0.50287992  1.0
  Ti  Ti3361  1  0.67834237  0.28763092  0.50287992  1.0
  Ti  Ti3362  1  0.67834237  0.45429758  0.50287992  1.0
  Ti  Ti3363  1  0.67834237  0.62096425  0.50287992  1.0
  Ti  Ti3364  1  0.67834237  0.78763092  0.50287992  1.0
  Ti  Ti3365  1  0.67834237  0.95429758  0.50287992  1.0
  Ti  Ti3366  1  0.76167570  0.12096425  0.50287992  1.0
  Ti  Ti3367  1  0.76167570  0.28763092  0.50287992  1.0
  Ti  Ti3368  1  0.76167570  0.45429758  0.50287992  1.0
  Ti  Ti3369  1  0.76167570  0.62096425  0.50287992  1.0
  Ti  Ti3370  1  0.76167570  0.78763092  0.50287992  1.0
  Ti  Ti3371  1  0.76167570  0.95429758  0.50287992  1.0
  Ti  Ti3372  1  0.84500904  0.12096425  0.50287992  1.0
  Ti  Ti3373  1  0.84500904  0.28763092  0.50287992  1.0
  Ti  Ti3374  1  0.84500904  0.45429758  0.50287992  1.0
  Ti  Ti3375  1  0.84500904  0.62096425  0.50287992  1.0
  Ti  Ti3376  1  0.84500904  0.78763092  0.50287992  1.0
  Ti  Ti3377  1  0.84500904  0.95429758  0.50287992  1.0
  Ti  Ti3378  1  0.92834237  0.12096425  0.50287992  1.0
  Ti  Ti3379  1  0.92834237  0.28763092  0.50287992  1.0
  Ti  Ti3380  1  0.92834237  0.45429758  0.50287992  1.0
  Ti  Ti3381  1  0.92834237  0.62096425  0.50287992  1.0
  Ti  Ti3382  1  0.92834237  0.78763092  0.50287992  1.0
  Ti  Ti3383  1  0.92834237  0.95429758  0.50287992  1.0
  Ti  Ti3384  1  0.07119951  0.10905949  0.57430849  1.0
  Ti  Ti3385  1  0.07119951  0.27572615  0.57430849  1.0
  Ti  Ti3386  1  0.07119951  0.44239282  0.57430849  1.0
  Ti  Ti3387  1  0.07119951  0.60905949  0.57430849  1.0
  Ti  Ti3388  1  0.07119951  0.77572615  0.57430849  1.0
  Ti  Ti3389  1  0.07119951  0.94239282  0.57430849  1.0
  Ti  Ti3390  1  0.15453285  0.10905949  0.57430849  1.0
  Ti  Ti3391  1  0.15453285  0.27572615  0.57430849  1.0
  Ti  Ti3392  1  0.15453285  0.44239282  0.57430849  1.0
  Ti  Ti3393  1  0.15453285  0.60905949  0.57430849  1.0
  Ti  Ti3394  1  0.15453285  0.77572615  0.57430849  1.0
  Ti  Ti3395  1  0.15453285  0.94239282  0.57430849  1.0
  Ti  Ti3396  1  0.23786618  0.10905949  0.57430849  1.0
  Ti  Ti3397  1  0.23786618  0.27572615  0.57430849  1.0
  Ti  Ti3398  1  0.23786618  0.44239282  0.57430849  1.0
  Ti  Ti3399  1  0.23786618  0.60905949  0.57430849  1.0
  Ti  Ti3400  1  0.23786618  0.77572615  0.57430849  1.0
  Ti  Ti3401  1  0.23786618  0.94239282  0.57430849  1.0
  Ti  Ti3402  1  0.32119951  0.10905949  0.57430849  1.0
  Ti  Ti3403  1  0.32119951  0.27572615  0.57430849  1.0
  Ti  Ti3404  1  0.32119951  0.44239282  0.57430849  1.0
  Ti  Ti3405  1  0.32119951  0.60905949  0.57430849  1.0
  Ti  Ti3406  1  0.32119951  0.77572615  0.57430849  1.0
  Ti  Ti3407  1  0.32119951  0.94239282  0.57430849  1.0
  Ti  Ti3408  1  0.40453285  0.10905949  0.57430849  1.0
  Ti  Ti3409  1  0.40453285  0.27572615  0.57430849  1.0
  Ti  Ti3410  1  0.40453285  0.44239282  0.57430849  1.0
  Ti  Ti3411  1  0.40453285  0.60905949  0.57430849  1.0
  Ti  Ti3412  1  0.40453285  0.77572615  0.57430849  1.0
  Ti  Ti3413  1  0.40453285  0.94239282  0.57430849  1.0
  Ti  Ti3414  1  0.48786618  0.10905949  0.57430849  1.0
  Ti  Ti3415  1  0.48786618  0.27572615  0.57430849  1.0
  Ti  Ti3416  1  0.48786618  0.44239282  0.57430849  1.0
  Ti  Ti3417  1  0.48786618  0.60905949  0.57430849  1.0
  Ti  Ti3418  1  0.48786618  0.77572615  0.57430849  1.0
  Ti  Ti3419  1  0.48786618  0.94239282  0.57430849  1.0
  Ti  Ti3420  1  0.57119951  0.10905949  0.57430849  1.0
  Ti  Ti3421  1  0.57119951  0.27572615  0.57430849  1.0
  Ti  Ti3422  1  0.57119951  0.44239282  0.57430849  1.0
  Ti  Ti3423  1  0.57119951  0.60905949  0.57430849  1.0
  Ti  Ti3424  1  0.57119951  0.77572615  0.57430849  1.0
  Ti  Ti3425  1  0.57119951  0.94239282  0.57430849  1.0
  Ti  Ti3426  1  0.65453285  0.10905949  0.57430849  1.0
  Ti  Ti3427  1  0.65453285  0.27572615  0.57430849  1.0
  Ti  Ti3428  1  0.65453285  0.44239282  0.57430849  1.0
  Ti  Ti3429  1  0.65453285  0.60905949  0.57430849  1.0
  Ti  Ti3430  1  0.65453285  0.77572615  0.57430849  1.0
  Ti  Ti3431  1  0.65453285  0.94239282  0.57430849  1.0
  Ti  Ti3432  1  0.73786618  0.10905949  0.57430849  1.0
  Ti  Ti3433  1  0.73786618  0.27572615  0.57430849  1.0
  Ti  Ti3434  1  0.73786618  0.44239282  0.57430849  1.0
  Ti  Ti3435  1  0.73786618  0.60905949  0.57430849  1.0
  Ti  Ti3436  1  0.73786618  0.77572615  0.57430849  1.0
  Ti  Ti3437  1  0.73786618  0.94239282  0.57430849  1.0
  Ti  Ti3438  1  0.82119951  0.10905949  0.57430849  1.0
  Ti  Ti3439  1  0.82119951  0.27572615  0.57430849  1.0
  Ti  Ti3440  1  0.82119951  0.44239282  0.57430849  1.0
  Ti  Ti3441  1  0.82119951  0.60905949  0.57430849  1.0
  Ti  Ti3442  1  0.82119951  0.77572615  0.57430849  1.0
  Ti  Ti3443  1  0.82119951  0.94239282  0.57430849  1.0
  Ti  Ti3444  1  0.90453285  0.10905949  0.57430849  1.0
  Ti  Ti3445  1  0.90453285  0.27572615  0.57430849  1.0
  Ti  Ti3446  1  0.90453285  0.44239282  0.57430849  1.0
  Ti  Ti3447  1  0.90453285  0.60905949  0.57430849  1.0
  Ti  Ti3448  1  0.90453285  0.77572615  0.57430849  1.0
  Ti  Ti3449  1  0.90453285  0.94239282  0.57430849  1.0
  Ti  Ti3450  1  0.98786618  0.10905949  0.57430849  1.0
  Ti  Ti3451  1  0.98786618  0.27572615  0.57430849  1.0
  Ti  Ti3452  1  0.98786618  0.44239282  0.57430849  1.0
  Ti  Ti3453  1  0.98786618  0.60905949  0.57430849  1.0
  Ti  Ti3454  1  0.98786618  0.77572615  0.57430849  1.0
  Ti  Ti3455  1  0.98786618  0.94239282  0.57430849  1.0
  Ti  Ti3456  1  0.00009024  0.09043954  0.53575177  1.0
  Ti  Ti3457  1  0.00009024  0.25710621  0.53575177  1.0
  Ti  Ti3458  1  0.00009024  0.42377288  0.53575177  1.0
  Ti  Ti3459  1  0.00009024  0.59043954  0.53575177  1.0
  Ti  Ti3460  1  0.00009024  0.75710621  0.53575177  1.0
  Ti  Ti3461  1  0.00009024  0.92377288  0.53575177  1.0
  Ti  Ti3462  1  0.08342357  0.09043954  0.53575177  1.0
  Ti  Ti3463  1  0.08342357  0.25710621  0.53575177  1.0
  Ti  Ti3464  1  0.08342357  0.42377288  0.53575177  1.0
  Ti  Ti3465  1  0.08342357  0.59043954  0.53575177  1.0
  Ti  Ti3466  1  0.08342357  0.75710621  0.53575177  1.0
  Ti  Ti3467  1  0.08342357  0.92377288  0.53575177  1.0
  Ti  Ti3468  1  0.16675690  0.09043954  0.53575177  1.0
  Ti  Ti3469  1  0.16675690  0.25710621  0.53575177  1.0
  Ti  Ti3470  1  0.16675690  0.42377288  0.53575177  1.0
  Ti  Ti3471  1  0.16675690  0.59043954  0.53575177  1.0
  Ti  Ti3472  1  0.16675690  0.75710621  0.53575177  1.0
  Ti  Ti3473  1  0.16675690  0.92377288  0.53575177  1.0
  Ti  Ti3474  1  0.25009024  0.09043954  0.53575177  1.0
  Ti  Ti3475  1  0.25009024  0.25710621  0.53575177  1.0
  Ti  Ti3476  1  0.25009024  0.42377288  0.53575177  1.0
  Ti  Ti3477  1  0.25009024  0.59043954  0.53575177  1.0
  Ti  Ti3478  1  0.25009024  0.75710621  0.53575177  1.0
  Ti  Ti3479  1  0.25009024  0.92377288  0.53575177  1.0
  Ti  Ti3480  1  0.33342357  0.09043954  0.53575177  1.0
  Ti  Ti3481  1  0.33342357  0.25710621  0.53575177  1.0
  Ti  Ti3482  1  0.33342357  0.42377288  0.53575177  1.0
  Ti  Ti3483  1  0.33342357  0.59043954  0.53575177  1.0
  Ti  Ti3484  1  0.33342357  0.75710621  0.53575177  1.0
  Ti  Ti3485  1  0.33342357  0.92377288  0.53575177  1.0
  Ti  Ti3486  1  0.41675690  0.09043954  0.53575177  1.0
  Ti  Ti3487  1  0.41675690  0.25710621  0.53575177  1.0
  Ti  Ti3488  1  0.41675690  0.42377288  0.53575177  1.0
  Ti  Ti3489  1  0.41675690  0.59043954  0.53575177  1.0
  Ti  Ti3490  1  0.41675690  0.75710621  0.53575177  1.0
  Ti  Ti3491  1  0.41675690  0.92377288  0.53575177  1.0
  Ti  Ti3492  1  0.50009024  0.09043954  0.53575177  1.0
  Ti  Ti3493  1  0.50009024  0.25710621  0.53575177  1.0
  Ti  Ti3494  1  0.50009024  0.42377288  0.53575177  1.0
  Ti  Ti3495  1  0.50009024  0.59043954  0.53575177  1.0
  Ti  Ti3496  1  0.50009024  0.75710621  0.53575177  1.0
  Ti  Ti3497  1  0.50009024  0.92377288  0.53575177  1.0
  Ti  Ti3498  1  0.58342357  0.09043954  0.53575177  1.0
  Ti  Ti3499  1  0.58342357  0.25710621  0.53575177  1.0
  Ti  Ti3500  1  0.58342357  0.42377288  0.53575177  1.0
  Ti  Ti3501  1  0.58342357  0.59043954  0.53575177  1.0
  Ti  Ti3502  1  0.58342357  0.75710621  0.53575177  1.0
  Ti  Ti3503  1  0.58342357  0.92377288  0.53575177  1.0
  Ti  Ti3504  1  0.66675690  0.09043954  0.53575177  1.0
  Ti  Ti3505  1  0.66675690  0.25710621  0.53575177  1.0
  Ti  Ti3506  1  0.66675690  0.42377288  0.53575177  1.0
  Ti  Ti3507  1  0.66675690  0.59043954  0.53575177  1.0
  Ti  Ti3508  1  0.66675690  0.75710621  0.53575177  1.0
  Ti  Ti3509  1  0.66675690  0.92377288  0.53575177  1.0
  Ti  Ti3510  1  0.75009024  0.09043954  0.53575177  1.0
  Ti  Ti3511  1  0.75009024  0.25710621  0.53575177  1.0
  Ti  Ti3512  1  0.75009024  0.42377288  0.53575177  1.0
  Ti  Ti3513  1  0.75009024  0.59043954  0.53575177  1.0
  Ti  Ti3514  1  0.75009024  0.75710621  0.53575177  1.0
  Ti  Ti3515  1  0.75009024  0.92377288  0.53575177  1.0
  Ti  Ti3516  1  0.83342357  0.09043954  0.53575177  1.0
  Ti  Ti3517  1  0.83342357  0.25710621  0.53575177  1.0
  Ti  Ti3518  1  0.83342357  0.42377288  0.53575177  1.0
  Ti  Ti3519  1  0.83342357  0.59043954  0.53575177  1.0
  Ti  Ti3520  1  0.83342357  0.75710621  0.53575177  1.0
  Ti  Ti3521  1  0.83342357  0.92377288  0.53575177  1.0
  Ti  Ti3522  1  0.91675690  0.09043954  0.53575177  1.0
  Ti  Ti3523  1  0.91675690  0.25710621  0.53575177  1.0
  Ti  Ti3524  1  0.91675690  0.42377288  0.53575177  1.0
  Ti  Ti3525  1  0.91675690  0.59043954  0.53575177  1.0
  Ti  Ti3526  1  0.91675690  0.75710621  0.53575177  1.0
  Ti  Ti3527  1  0.91675690  0.92377288  0.53575177  1.0
  Ti  Ti3528  1  0.05961405  0.07853478  0.60718034  1.0
  Ti  Ti3529  1  0.05961405  0.24520145  0.60718034  1.0
  Ti  Ti3530  1  0.05961405  0.41186811  0.60718034  1.0
  Ti  Ti3531  1  0.05961405  0.57853478  0.60718034  1.0
  Ti  Ti3532  1  0.05961405  0.74520145  0.60718034  1.0
  Ti  Ti3533  1  0.05961405  0.91186811  0.60718034  1.0
  Ti  Ti3534  1  0.14294738  0.07853478  0.60718034  1.0
  Ti  Ti3535  1  0.14294738  0.24520145  0.60718034  1.0
  Ti  Ti3536  1  0.14294738  0.41186811  0.60718034  1.0
  Ti  Ti3537  1  0.14294738  0.57853478  0.60718034  1.0
  Ti  Ti3538  1  0.14294738  0.74520145  0.60718034  1.0
  Ti  Ti3539  1  0.14294738  0.91186811  0.60718034  1.0
  Ti  Ti3540  1  0.22628071  0.07853478  0.60718034  1.0
  Ti  Ti3541  1  0.22628071  0.24520145  0.60718034  1.0
  Ti  Ti3542  1  0.22628071  0.41186811  0.60718034  1.0
  Ti  Ti3543  1  0.22628071  0.57853478  0.60718034  1.0
  Ti  Ti3544  1  0.22628071  0.74520145  0.60718034  1.0
  Ti  Ti3545  1  0.22628071  0.91186811  0.60718034  1.0
  Ti  Ti3546  1  0.30961405  0.07853478  0.60718034  1.0
  Ti  Ti3547  1  0.30961405  0.24520145  0.60718034  1.0
  Ti  Ti3548  1  0.30961405  0.41186811  0.60718034  1.0
  Ti  Ti3549  1  0.30961405  0.57853478  0.60718034  1.0
  Ti  Ti3550  1  0.30961405  0.74520145  0.60718034  1.0
  Ti  Ti3551  1  0.30961405  0.91186811  0.60718034  1.0
  Ti  Ti3552  1  0.39294738  0.07853478  0.60718034  1.0
  Ti  Ti3553  1  0.39294738  0.24520145  0.60718034  1.0
  Ti  Ti3554  1  0.39294738  0.41186811  0.60718034  1.0
  Ti  Ti3555  1  0.39294738  0.57853478  0.60718034  1.0
  Ti  Ti3556  1  0.39294738  0.74520145  0.60718034  1.0
  Ti  Ti3557  1  0.39294738  0.91186811  0.60718034  1.0
  Ti  Ti3558  1  0.47628071  0.07853478  0.60718034  1.0
  Ti  Ti3559  1  0.47628071  0.24520145  0.60718034  1.0
  Ti  Ti3560  1  0.47628071  0.41186811  0.60718034  1.0
  Ti  Ti3561  1  0.47628071  0.57853478  0.60718034  1.0
  Ti  Ti3562  1  0.47628071  0.74520145  0.60718034  1.0
  Ti  Ti3563  1  0.47628071  0.91186811  0.60718034  1.0
  Ti  Ti3564  1  0.55961405  0.07853478  0.60718034  1.0
  Ti  Ti3565  1  0.55961405  0.24520145  0.60718034  1.0
  Ti  Ti3566  1  0.55961405  0.41186811  0.60718034  1.0
  Ti  Ti3567  1  0.55961405  0.57853478  0.60718034  1.0
  Ti  Ti3568  1  0.55961405  0.74520145  0.60718034  1.0
  Ti  Ti3569  1  0.55961405  0.91186811  0.60718034  1.0
  Ti  Ti3570  1  0.64294738  0.07853478  0.60718034  1.0
  Ti  Ti3571  1  0.64294738  0.24520145  0.60718034  1.0
  Ti  Ti3572  1  0.64294738  0.41186811  0.60718034  1.0
  Ti  Ti3573  1  0.64294738  0.57853478  0.60718034  1.0
  Ti  Ti3574  1  0.64294738  0.74520145  0.60718034  1.0
  Ti  Ti3575  1  0.64294738  0.91186811  0.60718034  1.0
  Ti  Ti3576  1  0.72628071  0.07853478  0.60718034  1.0
  Ti  Ti3577  1  0.72628071  0.24520145  0.60718034  1.0
  Ti  Ti3578  1  0.72628071  0.41186811  0.60718034  1.0
  Ti  Ti3579  1  0.72628071  0.57853478  0.60718034  1.0
  Ti  Ti3580  1  0.72628071  0.74520145  0.60718034  1.0
  Ti  Ti3581  1  0.72628071  0.91186811  0.60718034  1.0
  Ti  Ti3582  1  0.80961405  0.07853478  0.60718034  1.0
  Ti  Ti3583  1  0.80961405  0.24520145  0.60718034  1.0
  Ti  Ti3584  1  0.80961405  0.41186811  0.60718034  1.0
  Ti  Ti3585  1  0.80961405  0.57853478  0.60718034  1.0
  Ti  Ti3586  1  0.80961405  0.74520145  0.60718034  1.0
  Ti  Ti3587  1  0.80961405  0.91186811  0.60718034  1.0
  Ti  Ti3588  1  0.89294738  0.07853478  0.60718034  1.0
  Ti  Ti3589  1  0.89294738  0.24520145  0.60718034  1.0
  Ti  Ti3590  1  0.89294738  0.41186811  0.60718034  1.0
  Ti  Ti3591  1  0.89294738  0.57853478  0.60718034  1.0
  Ti  Ti3592  1  0.89294738  0.74520145  0.60718034  1.0
  Ti  Ti3593  1  0.89294738  0.91186811  0.60718034  1.0
  Ti  Ti3594  1  0.97628071  0.07853478  0.60718034  1.0
  Ti  Ti3595  1  0.97628071  0.24520145  0.60718034  1.0
  Ti  Ti3596  1  0.97628071  0.41186811  0.60718034  1.0
  Ti  Ti3597  1  0.97628071  0.57853478  0.60718034  1.0
  Ti  Ti3598  1  0.97628071  0.74520145  0.60718034  1.0
  Ti  Ti3599  1  0.97628071  0.91186811  0.60718034  1.0
  Ti  Ti3600  1  0.00218177  0.04042176  0.52449535  1.0
  Ti  Ti3601  1  0.00218177  0.20708843  0.52449535  1.0
  Ti  Ti3602  1  0.00218177  0.37375509  0.52449535  1.0
  Ti  Ti3603  1  0.00218177  0.54042176  0.52449535  1.0
  Ti  Ti3604  1  0.00218177  0.70708843  0.52449535  1.0
  Ti  Ti3605  1  0.00218177  0.87375509  0.52449535  1.0
  Ti  Ti3606  1  0.08551511  0.04042176  0.52449535  1.0
  Ti  Ti3607  1  0.08551511  0.20708843  0.52449535  1.0
  Ti  Ti3608  1  0.08551511  0.37375509  0.52449535  1.0
  Ti  Ti3609  1  0.08551511  0.54042176  0.52449535  1.0
  Ti  Ti3610  1  0.08551511  0.70708843  0.52449535  1.0
  Ti  Ti3611  1  0.08551511  0.87375509  0.52449535  1.0
  Ti  Ti3612  1  0.16884844  0.04042176  0.52449535  1.0
  Ti  Ti3613  1  0.16884844  0.20708843  0.52449535  1.0
  Ti  Ti3614  1  0.16884844  0.37375509  0.52449535  1.0
  Ti  Ti3615  1  0.16884844  0.54042176  0.52449535  1.0
  Ti  Ti3616  1  0.16884844  0.70708843  0.52449535  1.0
  Ti  Ti3617  1  0.16884844  0.87375509  0.52449535  1.0
  Ti  Ti3618  1  0.25218177  0.04042176  0.52449535  1.0
  Ti  Ti3619  1  0.25218177  0.20708843  0.52449535  1.0
  Ti  Ti3620  1  0.25218177  0.37375509  0.52449535  1.0
  Ti  Ti3621  1  0.25218177  0.54042176  0.52449535  1.0
  Ti  Ti3622  1  0.25218177  0.70708843  0.52449535  1.0
  Ti  Ti3623  1  0.25218177  0.87375509  0.52449535  1.0
  Ti  Ti3624  1  0.33551511  0.04042176  0.52449535  1.0
  Ti  Ti3625  1  0.33551511  0.20708843  0.52449535  1.0
  Ti  Ti3626  1  0.33551511  0.37375509  0.52449535  1.0
  Ti  Ti3627  1  0.33551511  0.54042176  0.52449535  1.0
  Ti  Ti3628  1  0.33551511  0.70708843  0.52449535  1.0
  Ti  Ti3629  1  0.33551511  0.87375509  0.52449535  1.0
  Ti  Ti3630  1  0.41884844  0.04042176  0.52449535  1.0
  Ti  Ti3631  1  0.41884844  0.20708843  0.52449535  1.0
  Ti  Ti3632  1  0.41884844  0.37375509  0.52449535  1.0
  Ti  Ti3633  1  0.41884844  0.54042176  0.52449535  1.0
  Ti  Ti3634  1  0.41884844  0.70708843  0.52449535  1.0
  Ti  Ti3635  1  0.41884844  0.87375509  0.52449535  1.0
  Ti  Ti3636  1  0.50218177  0.04042176  0.52449535  1.0
  Ti  Ti3637  1  0.50218177  0.20708843  0.52449535  1.0
  Ti  Ti3638  1  0.50218177  0.37375509  0.52449535  1.0
  Ti  Ti3639  1  0.50218177  0.54042176  0.52449535  1.0
  Ti  Ti3640  1  0.50218177  0.70708843  0.52449535  1.0
  Ti  Ti3641  1  0.50218177  0.87375509  0.52449535  1.0
  Ti  Ti3642  1  0.58551511  0.04042176  0.52449535  1.0
  Ti  Ti3643  1  0.58551511  0.20708843  0.52449535  1.0
  Ti  Ti3644  1  0.58551511  0.37375509  0.52449535  1.0
  Ti  Ti3645  1  0.58551511  0.54042176  0.52449535  1.0
  Ti  Ti3646  1  0.58551511  0.70708843  0.52449535  1.0
  Ti  Ti3647  1  0.58551511  0.87375509  0.52449535  1.0
  Ti  Ti3648  1  0.66884844  0.04042176  0.52449535  1.0
  Ti  Ti3649  1  0.66884844  0.20708843  0.52449535  1.0
  Ti  Ti3650  1  0.66884844  0.37375509  0.52449535  1.0
  Ti  Ti3651  1  0.66884844  0.54042176  0.52449535  1.0
  Ti  Ti3652  1  0.66884844  0.70708843  0.52449535  1.0
  Ti  Ti3653  1  0.66884844  0.87375509  0.52449535  1.0
  Ti  Ti3654  1  0.75218177  0.04042176  0.52449535  1.0
  Ti  Ti3655  1  0.75218177  0.20708843  0.52449535  1.0
  Ti  Ti3656  1  0.75218177  0.37375509  0.52449535  1.0
  Ti  Ti3657  1  0.75218177  0.54042176  0.52449535  1.0
  Ti  Ti3658  1  0.75218177  0.70708843  0.52449535  1.0
  Ti  Ti3659  1  0.75218177  0.87375509  0.52449535  1.0
  Ti  Ti3660  1  0.83551511  0.04042176  0.52449535  1.0
  Ti  Ti3661  1  0.83551511  0.20708843  0.52449535  1.0
  Ti  Ti3662  1  0.83551511  0.37375509  0.52449535  1.0
  Ti  Ti3663  1  0.83551511  0.54042176  0.52449535  1.0
  Ti  Ti3664  1  0.83551511  0.70708843  0.52449535  1.0
  Ti  Ti3665  1  0.83551511  0.87375509  0.52449535  1.0
  Ti  Ti3666  1  0.91884844  0.04042176  0.52449535  1.0
  Ti  Ti3667  1  0.91884844  0.20708843  0.52449535  1.0
  Ti  Ti3668  1  0.91884844  0.37375509  0.52449535  1.0
  Ti  Ti3669  1  0.91884844  0.54042176  0.52449535  1.0
  Ti  Ti3670  1  0.91884844  0.70708843  0.52449535  1.0
  Ti  Ti3671  1  0.91884844  0.87375509  0.52449535  1.0
  Ti  Ti3672  1  0.06170558  0.02851700  0.59592392  1.0
  Ti  Ti3673  1  0.06170558  0.19518366  0.59592392  1.0
  Ti  Ti3674  1  0.06170558  0.36185033  0.59592392  1.0
  Ti  Ti3675  1  0.06170558  0.52851700  0.59592392  1.0
  Ti  Ti3676  1  0.06170558  0.69518366  0.59592392  1.0
  Ti  Ti3677  1  0.06170558  0.86185033  0.59592392  1.0
  Ti  Ti3678  1  0.14503892  0.02851700  0.59592392  1.0
  Ti  Ti3679  1  0.14503892  0.19518366  0.59592392  1.0
  Ti  Ti3680  1  0.14503892  0.36185033  0.59592392  1.0
  Ti  Ti3681  1  0.14503892  0.52851700  0.59592392  1.0
  Ti  Ti3682  1  0.14503892  0.69518366  0.59592392  1.0
  Ti  Ti3683  1  0.14503892  0.86185033  0.59592392  1.0
  Ti  Ti3684  1  0.22837225  0.02851700  0.59592392  1.0
  Ti  Ti3685  1  0.22837225  0.19518366  0.59592392  1.0
  Ti  Ti3686  1  0.22837225  0.36185033  0.59592392  1.0
  Ti  Ti3687  1  0.22837225  0.52851700  0.59592392  1.0
  Ti  Ti3688  1  0.22837225  0.69518366  0.59592392  1.0
  Ti  Ti3689  1  0.22837225  0.86185033  0.59592392  1.0
  Ti  Ti3690  1  0.31170558  0.02851700  0.59592392  1.0
  Ti  Ti3691  1  0.31170558  0.19518366  0.59592392  1.0
  Ti  Ti3692  1  0.31170558  0.36185033  0.59592392  1.0
  Ti  Ti3693  1  0.31170558  0.52851700  0.59592392  1.0
  Ti  Ti3694  1  0.31170558  0.69518366  0.59592392  1.0
  Ti  Ti3695  1  0.31170558  0.86185033  0.59592392  1.0
  Ti  Ti3696  1  0.39503892  0.02851700  0.59592392  1.0
  Ti  Ti3697  1  0.39503892  0.19518366  0.59592392  1.0
  Ti  Ti3698  1  0.39503892  0.36185033  0.59592392  1.0
  Ti  Ti3699  1  0.39503892  0.52851700  0.59592392  1.0
  Ti  Ti3700  1  0.39503892  0.69518366  0.59592392  1.0
  Ti  Ti3701  1  0.39503892  0.86185033  0.59592392  1.0
  Ti  Ti3702  1  0.47837225  0.02851700  0.59592392  1.0
  Ti  Ti3703  1  0.47837225  0.19518366  0.59592392  1.0
  Ti  Ti3704  1  0.47837225  0.36185033  0.59592392  1.0
  Ti  Ti3705  1  0.47837225  0.52851700  0.59592392  1.0
  Ti  Ti3706  1  0.47837225  0.69518366  0.59592392  1.0
  Ti  Ti3707  1  0.47837225  0.86185033  0.59592392  1.0
  Ti  Ti3708  1  0.56170558  0.02851700  0.59592392  1.0
  Ti  Ti3709  1  0.56170558  0.19518366  0.59592392  1.0
  Ti  Ti3710  1  0.56170558  0.36185033  0.59592392  1.0
  Ti  Ti3711  1  0.56170558  0.52851700  0.59592392  1.0
  Ti  Ti3712  1  0.56170558  0.69518366  0.59592392  1.0
  Ti  Ti3713  1  0.56170558  0.86185033  0.59592392  1.0
  Ti  Ti3714  1  0.64503892  0.02851700  0.59592392  1.0
  Ti  Ti3715  1  0.64503892  0.19518366  0.59592392  1.0
  Ti  Ti3716  1  0.64503892  0.36185033  0.59592392  1.0
  Ti  Ti3717  1  0.64503892  0.52851700  0.59592392  1.0
  Ti  Ti3718  1  0.64503892  0.69518366  0.59592392  1.0
  Ti  Ti3719  1  0.64503892  0.86185033  0.59592392  1.0
  Ti  Ti3720  1  0.72837225  0.02851700  0.59592392  1.0
  Ti  Ti3721  1  0.72837225  0.19518366  0.59592392  1.0
  Ti  Ti3722  1  0.72837225  0.36185033  0.59592392  1.0
  Ti  Ti3723  1  0.72837225  0.52851700  0.59592392  1.0
  Ti  Ti3724  1  0.72837225  0.69518366  0.59592392  1.0
  Ti  Ti3725  1  0.72837225  0.86185033  0.59592392  1.0
  Ti  Ti3726  1  0.81170558  0.02851700  0.59592392  1.0
  Ti  Ti3727  1  0.81170558  0.19518366  0.59592392  1.0
  Ti  Ti3728  1  0.81170558  0.36185033  0.59592392  1.0
  Ti  Ti3729  1  0.81170558  0.52851700  0.59592392  1.0
  Ti  Ti3730  1  0.81170558  0.69518366  0.59592392  1.0
  Ti  Ti3731  1  0.81170558  0.86185033  0.59592392  1.0
  Ti  Ti3732  1  0.89503892  0.02851700  0.59592392  1.0
  Ti  Ti3733  1  0.89503892  0.19518366  0.59592392  1.0
  Ti  Ti3734  1  0.89503892  0.36185033  0.59592392  1.0
  Ti  Ti3735  1  0.89503892  0.52851700  0.59592392  1.0
  Ti  Ti3736  1  0.89503892  0.69518366  0.59592392  1.0
  Ti  Ti3737  1  0.89503892  0.86185033  0.59592392  1.0
  Ti  Ti3738  1  0.97837225  0.02851700  0.59592392  1.0
  Ti  Ti3739  1  0.97837225  0.19518366  0.59592392  1.0
  Ti  Ti3740  1  0.97837225  0.36185033  0.59592392  1.0
  Ti  Ti3741  1  0.97837225  0.52851700  0.59592392  1.0
  Ti  Ti3742  1  0.97837225  0.69518366  0.59592392  1.0
  Ti  Ti3743  1  0.97837225  0.86185033  0.59592392  1.0
  Ti  Ti3744  1  0.01287408  0.14614430  0.62081211  1.0
  Ti  Ti3745  1  0.01287408  0.31281097  0.62081211  1.0
  Ti  Ti3746  1  0.01287408  0.47947764  0.62081211  1.0
  Ti  Ti3747  1  0.01287408  0.64614430  0.62081211  1.0
  Ti  Ti3748  1  0.01287408  0.81281097  0.62081211  1.0
  Ti  Ti3749  1  0.01287408  0.97947764  0.62081211  1.0
  Ti  Ti3750  1  0.09620741  0.14614430  0.62081211  1.0
  Ti  Ti3751  1  0.09620741  0.31281097  0.62081211  1.0
  Ti  Ti3752  1  0.09620741  0.47947764  0.62081211  1.0
  Ti  Ti3753  1  0.09620741  0.64614430  0.62081211  1.0
  Ti  Ti3754  1  0.09620741  0.81281097  0.62081211  1.0
  Ti  Ti3755  1  0.09620741  0.97947764  0.62081211  1.0
  Ti  Ti3756  1  0.17954075  0.14614430  0.62081211  1.0
  Ti  Ti3757  1  0.17954075  0.31281097  0.62081211  1.0
  Ti  Ti3758  1  0.17954075  0.47947764  0.62081211  1.0
  Ti  Ti3759  1  0.17954075  0.64614430  0.62081211  1.0
  Ti  Ti3760  1  0.17954075  0.81281097  0.62081211  1.0
  Ti  Ti3761  1  0.17954075  0.97947764  0.62081211  1.0
  Ti  Ti3762  1  0.26287408  0.14614430  0.62081211  1.0
  Ti  Ti3763  1  0.26287408  0.31281097  0.62081211  1.0
  Ti  Ti3764  1  0.26287408  0.47947764  0.62081211  1.0
  Ti  Ti3765  1  0.26287408  0.64614430  0.62081211  1.0
  Ti  Ti3766  1  0.26287408  0.81281097  0.62081211  1.0
  Ti  Ti3767  1  0.26287408  0.97947764  0.62081211  1.0
  Ti  Ti3768  1  0.34620741  0.14614430  0.62081211  1.0
  Ti  Ti3769  1  0.34620741  0.31281097  0.62081211  1.0
  Ti  Ti3770  1  0.34620741  0.47947764  0.62081211  1.0
  Ti  Ti3771  1  0.34620741  0.64614430  0.62081211  1.0
  Ti  Ti3772  1  0.34620741  0.81281097  0.62081211  1.0
  Ti  Ti3773  1  0.34620741  0.97947764  0.62081211  1.0
  Ti  Ti3774  1  0.42954075  0.14614430  0.62081211  1.0
  Ti  Ti3775  1  0.42954075  0.31281097  0.62081211  1.0
  Ti  Ti3776  1  0.42954075  0.47947764  0.62081211  1.0
  Ti  Ti3777  1  0.42954075  0.64614430  0.62081211  1.0
  Ti  Ti3778  1  0.42954075  0.81281097  0.62081211  1.0
  Ti  Ti3779  1  0.42954075  0.97947764  0.62081211  1.0
  Ti  Ti3780  1  0.51287408  0.14614430  0.62081211  1.0
  Ti  Ti3781  1  0.51287408  0.31281097  0.62081211  1.0
  Ti  Ti3782  1  0.51287408  0.47947764  0.62081211  1.0
  Ti  Ti3783  1  0.51287408  0.64614430  0.62081211  1.0
  Ti  Ti3784  1  0.51287408  0.81281097  0.62081211  1.0
  Ti  Ti3785  1  0.51287408  0.97947764  0.62081211  1.0
  Ti  Ti3786  1  0.59620741  0.14614430  0.62081211  1.0
  Ti  Ti3787  1  0.59620741  0.31281097  0.62081211  1.0
  Ti  Ti3788  1  0.59620741  0.47947764  0.62081211  1.0
  Ti  Ti3789  1  0.59620741  0.64614430  0.62081211  1.0
  Ti  Ti3790  1  0.59620741  0.81281097  0.62081211  1.0
  Ti  Ti3791  1  0.59620741  0.97947764  0.62081211  1.0
  Ti  Ti3792  1  0.67954075  0.14614430  0.62081211  1.0
  Ti  Ti3793  1  0.67954075  0.31281097  0.62081211  1.0
  Ti  Ti3794  1  0.67954075  0.47947764  0.62081211  1.0
  Ti  Ti3795  1  0.67954075  0.64614430  0.62081211  1.0
  Ti  Ti3796  1  0.67954075  0.81281097  0.62081211  1.0
  Ti  Ti3797  1  0.67954075  0.97947764  0.62081211  1.0
  Ti  Ti3798  1  0.76287408  0.14614430  0.62081211  1.0
  Ti  Ti3799  1  0.76287408  0.31281097  0.62081211  1.0
  Ti  Ti3800  1  0.76287408  0.47947764  0.62081211  1.0
  Ti  Ti3801  1  0.76287408  0.64614430  0.62081211  1.0
  Ti  Ti3802  1  0.76287408  0.81281097  0.62081211  1.0
  Ti  Ti3803  1  0.76287408  0.97947764  0.62081211  1.0
  Ti  Ti3804  1  0.84620741  0.14614430  0.62081211  1.0
  Ti  Ti3805  1  0.84620741  0.31281097  0.62081211  1.0
  Ti  Ti3806  1  0.84620741  0.47947764  0.62081211  1.0
  Ti  Ti3807  1  0.84620741  0.64614430  0.62081211  1.0
  Ti  Ti3808  1  0.84620741  0.81281097  0.62081211  1.0
  Ti  Ti3809  1  0.84620741  0.97947764  0.62081211  1.0
  Ti  Ti3810  1  0.92954075  0.14614430  0.62081211  1.0
  Ti  Ti3811  1  0.92954075  0.31281097  0.62081211  1.0
  Ti  Ti3812  1  0.92954075  0.47947764  0.62081211  1.0
  Ti  Ti3813  1  0.92954075  0.64614430  0.62081211  1.0
  Ti  Ti3814  1  0.92954075  0.81281097  0.62081211  1.0
  Ti  Ti3815  1  0.92954075  0.97947764  0.62081211  1.0
  Ti  Ti3816  1  0.03668360  0.15804906  0.54938354  1.0
  Ti  Ti3817  1  0.03668360  0.32471573  0.54938354  1.0
  Ti  Ti3818  1  0.03668360  0.49138240  0.54938354  1.0
  Ti  Ti3819  1  0.03668360  0.65804906  0.54938354  1.0
  Ti  Ti3820  1  0.03668360  0.82471573  0.54938354  1.0
  Ti  Ti3821  1  0.03668360  0.99138240  0.54938354  1.0
  Ti  Ti3822  1  0.12001694  0.15804906  0.54938354  1.0
  Ti  Ti3823  1  0.12001694  0.32471573  0.54938354  1.0
  Ti  Ti3824  1  0.12001694  0.49138240  0.54938354  1.0
  Ti  Ti3825  1  0.12001694  0.65804906  0.54938354  1.0
  Ti  Ti3826  1  0.12001694  0.82471573  0.54938354  1.0
  Ti  Ti3827  1  0.12001694  0.99138240  0.54938354  1.0
  Ti  Ti3828  1  0.20335027  0.15804906  0.54938354  1.0
  Ti  Ti3829  1  0.20335027  0.32471573  0.54938354  1.0
  Ti  Ti3830  1  0.20335027  0.49138240  0.54938354  1.0
  Ti  Ti3831  1  0.20335027  0.65804906  0.54938354  1.0
  Ti  Ti3832  1  0.20335027  0.82471573  0.54938354  1.0
  Ti  Ti3833  1  0.20335027  0.99138240  0.54938354  1.0
  Ti  Ti3834  1  0.28668360  0.15804906  0.54938354  1.0
  Ti  Ti3835  1  0.28668360  0.32471573  0.54938354  1.0
  Ti  Ti3836  1  0.28668360  0.49138240  0.54938354  1.0
  Ti  Ti3837  1  0.28668360  0.65804906  0.54938354  1.0
  Ti  Ti3838  1  0.28668360  0.82471573  0.54938354  1.0
  Ti  Ti3839  1  0.28668360  0.99138240  0.54938354  1.0
  Ti  Ti3840  1  0.37001694  0.15804906  0.54938354  1.0
  Ti  Ti3841  1  0.37001694  0.32471573  0.54938354  1.0
  Ti  Ti3842  1  0.37001694  0.49138240  0.54938354  1.0
  Ti  Ti3843  1  0.37001694  0.65804906  0.54938354  1.0
  Ti  Ti3844  1  0.37001694  0.82471573  0.54938354  1.0
  Ti  Ti3845  1  0.37001694  0.99138240  0.54938354  1.0
  Ti  Ti3846  1  0.45335027  0.15804906  0.54938354  1.0
  Ti  Ti3847  1  0.45335027  0.32471573  0.54938354  1.0
  Ti  Ti3848  1  0.45335027  0.49138240  0.54938354  1.0
  Ti  Ti3849  1  0.45335027  0.65804906  0.54938354  1.0
  Ti  Ti3850  1  0.45335027  0.82471573  0.54938354  1.0
  Ti  Ti3851  1  0.45335027  0.99138240  0.54938354  1.0
  Ti  Ti3852  1  0.53668360  0.15804906  0.54938354  1.0
  Ti  Ti3853  1  0.53668360  0.32471573  0.54938354  1.0
  Ti  Ti3854  1  0.53668360  0.49138240  0.54938354  1.0
  Ti  Ti3855  1  0.53668360  0.65804906  0.54938354  1.0
  Ti  Ti3856  1  0.53668360  0.82471573  0.54938354  1.0
  Ti  Ti3857  1  0.53668360  0.99138240  0.54938354  1.0
  Ti  Ti3858  1  0.62001694  0.15804906  0.54938354  1.0
  Ti  Ti3859  1  0.62001694  0.32471573  0.54938354  1.0
  Ti  Ti3860  1  0.62001694  0.49138240  0.54938354  1.0
  Ti  Ti3861  1  0.62001694  0.65804906  0.54938354  1.0
  Ti  Ti3862  1  0.62001694  0.82471573  0.54938354  1.0
  Ti  Ti3863  1  0.62001694  0.99138240  0.54938354  1.0
  Ti  Ti3864  1  0.70335027  0.15804906  0.54938354  1.0
  Ti  Ti3865  1  0.70335027  0.32471573  0.54938354  1.0
  Ti  Ti3866  1  0.70335027  0.49138240  0.54938354  1.0
  Ti  Ti3867  1  0.70335027  0.65804906  0.54938354  1.0
  Ti  Ti3868  1  0.70335027  0.82471573  0.54938354  1.0
  Ti  Ti3869  1  0.70335027  0.99138240  0.54938354  1.0
  Ti  Ti3870  1  0.78668360  0.15804906  0.54938354  1.0
  Ti  Ti3871  1  0.78668360  0.32471573  0.54938354  1.0
  Ti  Ti3872  1  0.78668360  0.49138240  0.54938354  1.0
  Ti  Ti3873  1  0.78668360  0.65804906  0.54938354  1.0
  Ti  Ti3874  1  0.78668360  0.82471573  0.54938354  1.0
  Ti  Ti3875  1  0.78668360  0.99138240  0.54938354  1.0
  Ti  Ti3876  1  0.87001694  0.15804906  0.54938354  1.0
  Ti  Ti3877  1  0.87001694  0.32471573  0.54938354  1.0
  Ti  Ti3878  1  0.87001694  0.49138240  0.54938354  1.0
  Ti  Ti3879  1  0.87001694  0.65804906  0.54938354  1.0
  Ti  Ti3880  1  0.87001694  0.82471573  0.54938354  1.0
  Ti  Ti3881  1  0.87001694  0.99138240  0.54938354  1.0
  Ti  Ti3882  1  0.95335027  0.15804906  0.54938354  1.0
  Ti  Ti3883  1  0.95335027  0.32471573  0.54938354  1.0
  Ti  Ti3884  1  0.95335027  0.49138240  0.54938354  1.0
  Ti  Ti3885  1  0.95335027  0.65804906  0.54938354  1.0
  Ti  Ti3886  1  0.95335027  0.82471573  0.54938354  1.0
  Ti  Ti3887  1  0.95335027  0.99138240  0.54938354  1.0
  Ti  Ti3888  1  0.00588465  0.07072865  0.64020513  1.0
  Ti  Ti3889  1  0.00588465  0.23739531  0.64020513  1.0
  Ti  Ti3890  1  0.00588465  0.40406198  0.64020513  1.0
  Ti  Ti3891  1  0.00588465  0.57072865  0.64020513  1.0
  Ti  Ti3892  1  0.00588465  0.73739531  0.64020513  1.0
  Ti  Ti3893  1  0.00588465  0.90406198  0.64020513  1.0
  Ti  Ti3894  1  0.08921799  0.07072865  0.64020513  1.0
  Ti  Ti3895  1  0.08921799  0.23739531  0.64020513  1.0
  Ti  Ti3896  1  0.08921799  0.40406198  0.64020513  1.0
  Ti  Ti3897  1  0.08921799  0.57072865  0.64020513  1.0
  Ti  Ti3898  1  0.08921799  0.73739531  0.64020513  1.0
  Ti  Ti3899  1  0.08921799  0.90406198  0.64020513  1.0
  Ti  Ti3900  1  0.17255132  0.07072865  0.64020513  1.0
  Ti  Ti3901  1  0.17255132  0.23739531  0.64020513  1.0
  Ti  Ti3902  1  0.17255132  0.40406198  0.64020513  1.0
  Ti  Ti3903  1  0.17255132  0.57072865  0.64020513  1.0
  Ti  Ti3904  1  0.17255132  0.73739531  0.64020513  1.0
  Ti  Ti3905  1  0.17255132  0.90406198  0.64020513  1.0
  Ti  Ti3906  1  0.25588465  0.07072865  0.64020513  1.0
  Ti  Ti3907  1  0.25588465  0.23739531  0.64020513  1.0
  Ti  Ti3908  1  0.25588465  0.40406198  0.64020513  1.0
  Ti  Ti3909  1  0.25588465  0.57072865  0.64020513  1.0
  Ti  Ti3910  1  0.25588465  0.73739531  0.64020513  1.0
  Ti  Ti3911  1  0.25588465  0.90406198  0.64020513  1.0
  Ti  Ti3912  1  0.33921799  0.07072865  0.64020513  1.0
  Ti  Ti3913  1  0.33921799  0.23739531  0.64020513  1.0
  Ti  Ti3914  1  0.33921799  0.40406198  0.64020513  1.0
  Ti  Ti3915  1  0.33921799  0.57072865  0.64020513  1.0
  Ti  Ti3916  1  0.33921799  0.73739531  0.64020513  1.0
  Ti  Ti3917  1  0.33921799  0.90406198  0.64020513  1.0
  Ti  Ti3918  1  0.42255132  0.07072865  0.64020513  1.0
  Ti  Ti3919  1  0.42255132  0.23739531  0.64020513  1.0
  Ti  Ti3920  1  0.42255132  0.40406198  0.64020513  1.0
  Ti  Ti3921  1  0.42255132  0.57072865  0.64020513  1.0
  Ti  Ti3922  1  0.42255132  0.73739531  0.64020513  1.0
  Ti  Ti3923  1  0.42255132  0.90406198  0.64020513  1.0
  Ti  Ti3924  1  0.50588465  0.07072865  0.64020513  1.0
  Ti  Ti3925  1  0.50588465  0.23739531  0.64020513  1.0
  Ti  Ti3926  1  0.50588465  0.40406198  0.64020513  1.0
  Ti  Ti3927  1  0.50588465  0.57072865  0.64020513  1.0
  Ti  Ti3928  1  0.50588465  0.73739531  0.64020513  1.0
  Ti  Ti3929  1  0.50588465  0.90406198  0.64020513  1.0
  Ti  Ti3930  1  0.58921799  0.07072865  0.64020513  1.0
  Ti  Ti3931  1  0.58921799  0.23739531  0.64020513  1.0
  Ti  Ti3932  1  0.58921799  0.40406198  0.64020513  1.0
  Ti  Ti3933  1  0.58921799  0.57072865  0.64020513  1.0
  Ti  Ti3934  1  0.58921799  0.73739531  0.64020513  1.0
  Ti  Ti3935  1  0.58921799  0.90406198  0.64020513  1.0
  Ti  Ti3936  1  0.67255132  0.07072865  0.64020513  1.0
  Ti  Ti3937  1  0.67255132  0.23739531  0.64020513  1.0
  Ti  Ti3938  1  0.67255132  0.40406198  0.64020513  1.0
  Ti  Ti3939  1  0.67255132  0.57072865  0.64020513  1.0
  Ti  Ti3940  1  0.67255132  0.73739531  0.64020513  1.0
  Ti  Ti3941  1  0.67255132  0.90406198  0.64020513  1.0
  Ti  Ti3942  1  0.75588465  0.07072865  0.64020513  1.0
  Ti  Ti3943  1  0.75588465  0.23739531  0.64020513  1.0
  Ti  Ti3944  1  0.75588465  0.40406198  0.64020513  1.0
  Ti  Ti3945  1  0.75588465  0.57072865  0.64020513  1.0
  Ti  Ti3946  1  0.75588465  0.73739531  0.64020513  1.0
  Ti  Ti3947  1  0.75588465  0.90406198  0.64020513  1.0
  Ti  Ti3948  1  0.83921799  0.07072865  0.64020513  1.0
  Ti  Ti3949  1  0.83921799  0.23739531  0.64020513  1.0
  Ti  Ti3950  1  0.83921799  0.40406198  0.64020513  1.0
  Ti  Ti3951  1  0.83921799  0.57072865  0.64020513  1.0
  Ti  Ti3952  1  0.83921799  0.73739531  0.64020513  1.0
  Ti  Ti3953  1  0.83921799  0.90406198  0.64020513  1.0
  Ti  Ti3954  1  0.92255132  0.07072865  0.64020513  1.0
  Ti  Ti3955  1  0.92255132  0.23739531  0.64020513  1.0
  Ti  Ti3956  1  0.92255132  0.40406198  0.64020513  1.0
  Ti  Ti3957  1  0.92255132  0.57072865  0.64020513  1.0
  Ti  Ti3958  1  0.92255132  0.73739531  0.64020513  1.0
  Ti  Ti3959  1  0.92255132  0.90406198  0.64020513  1.0
  Ti  Ti3960  1  0.02969418  0.08263341  0.56877656  1.0
  Ti  Ti3961  1  0.02969418  0.24930008  0.56877656  1.0
  Ti  Ti3962  1  0.02969418  0.41596674  0.56877656  1.0
  Ti  Ti3963  1  0.02969418  0.58263341  0.56877656  1.0
  Ti  Ti3964  1  0.02969418  0.74930008  0.56877656  1.0
  Ti  Ti3965  1  0.02969418  0.91596674  0.56877656  1.0
  Ti  Ti3966  1  0.11302751  0.08263341  0.56877656  1.0
  Ti  Ti3967  1  0.11302751  0.24930008  0.56877656  1.0
  Ti  Ti3968  1  0.11302751  0.41596674  0.56877656  1.0
  Ti  Ti3969  1  0.11302751  0.58263341  0.56877656  1.0
  Ti  Ti3970  1  0.11302751  0.74930008  0.56877656  1.0
  Ti  Ti3971  1  0.11302751  0.91596674  0.56877656  1.0
  Ti  Ti3972  1  0.19636084  0.08263341  0.56877656  1.0
  Ti  Ti3973  1  0.19636084  0.24930008  0.56877656  1.0
  Ti  Ti3974  1  0.19636084  0.41596674  0.56877656  1.0
  Ti  Ti3975  1  0.19636084  0.58263341  0.56877656  1.0
  Ti  Ti3976  1  0.19636084  0.74930008  0.56877656  1.0
  Ti  Ti3977  1  0.19636084  0.91596674  0.56877656  1.0
  Ti  Ti3978  1  0.27969418  0.08263341  0.56877656  1.0
  Ti  Ti3979  1  0.27969418  0.24930008  0.56877656  1.0
  Ti  Ti3980  1  0.27969418  0.41596674  0.56877656  1.0
  Ti  Ti3981  1  0.27969418  0.58263341  0.56877656  1.0
  Ti  Ti3982  1  0.27969418  0.74930008  0.56877656  1.0
  Ti  Ti3983  1  0.27969418  0.91596674  0.56877656  1.0
  Ti  Ti3984  1  0.36302751  0.08263341  0.56877656  1.0
  Ti  Ti3985  1  0.36302751  0.24930008  0.56877656  1.0
  Ti  Ti3986  1  0.36302751  0.41596674  0.56877656  1.0
  Ti  Ti3987  1  0.36302751  0.58263341  0.56877656  1.0
  Ti  Ti3988  1  0.36302751  0.74930008  0.56877656  1.0
  Ti  Ti3989  1  0.36302751  0.91596674  0.56877656  1.0
  Ti  Ti3990  1  0.44636084  0.08263341  0.56877656  1.0
  Ti  Ti3991  1  0.44636084  0.24930008  0.56877656  1.0
  Ti  Ti3992  1  0.44636084  0.41596674  0.56877656  1.0
  Ti  Ti3993  1  0.44636084  0.58263341  0.56877656  1.0
  Ti  Ti3994  1  0.44636084  0.74930008  0.56877656  1.0
  Ti  Ti3995  1  0.44636084  0.91596674  0.56877656  1.0
  Ti  Ti3996  1  0.52969418  0.08263341  0.56877656  1.0
  Ti  Ti3997  1  0.52969418  0.24930008  0.56877656  1.0
  Ti  Ti3998  1  0.52969418  0.41596674  0.56877656  1.0
  Ti  Ti3999  1  0.52969418  0.58263341  0.56877656  1.0
  Ti  Ti4000  1  0.52969418  0.74930008  0.56877656  1.0
  Ti  Ti4001  1  0.52969418  0.91596674  0.56877656  1.0
  Ti  Ti4002  1  0.61302751  0.08263341  0.56877656  1.0
  Ti  Ti4003  1  0.61302751  0.24930008  0.56877656  1.0
  Ti  Ti4004  1  0.61302751  0.41596674  0.56877656  1.0
  Ti  Ti4005  1  0.61302751  0.58263341  0.56877656  1.0
  Ti  Ti4006  1  0.61302751  0.74930008  0.56877656  1.0
  Ti  Ti4007  1  0.61302751  0.91596674  0.56877656  1.0
  Ti  Ti4008  1  0.69636084  0.08263341  0.56877656  1.0
  Ti  Ti4009  1  0.69636084  0.24930008  0.56877656  1.0
  Ti  Ti4010  1  0.69636084  0.41596674  0.56877656  1.0
  Ti  Ti4011  1  0.69636084  0.58263341  0.56877656  1.0
  Ti  Ti4012  1  0.69636084  0.74930008  0.56877656  1.0
  Ti  Ti4013  1  0.69636084  0.91596674  0.56877656  1.0
  Ti  Ti4014  1  0.77969418  0.08263341  0.56877656  1.0
  Ti  Ti4015  1  0.77969418  0.24930008  0.56877656  1.0
  Ti  Ti4016  1  0.77969418  0.41596674  0.56877656  1.0
  Ti  Ti4017  1  0.77969418  0.58263341  0.56877656  1.0
  Ti  Ti4018  1  0.77969418  0.74930008  0.56877656  1.0
  Ti  Ti4019  1  0.77969418  0.91596674  0.56877656  1.0
  Ti  Ti4020  1  0.86302751  0.08263341  0.56877656  1.0
  Ti  Ti4021  1  0.86302751  0.24930008  0.56877656  1.0
  Ti  Ti4022  1  0.86302751  0.41596674  0.56877656  1.0
  Ti  Ti4023  1  0.86302751  0.58263341  0.56877656  1.0
  Ti  Ti4024  1  0.86302751  0.74930008  0.56877656  1.0
  Ti  Ti4025  1  0.86302751  0.91596674  0.56877656  1.0
  Ti  Ti4026  1  0.94636084  0.08263341  0.56877656  1.0
  Ti  Ti4027  1  0.94636084  0.24930008  0.56877656  1.0
  Ti  Ti4028  1  0.94636084  0.41596674  0.56877656  1.0
  Ti  Ti4029  1  0.94636084  0.58263341  0.56877656  1.0
  Ti  Ti4030  1  0.94636084  0.74930008  0.56877656  1.0
  Ti  Ti4031  1  0.94636084  0.91596674  0.56877656  1.0
  Ti  Ti4032  1  0.05268326  0.00319399  0.62450641  1.0
  Ti  Ti4033  1  0.05268326  0.16986066  0.62450641  1.0
  Ti  Ti4034  1  0.05268326  0.33652733  0.62450641  1.0
  Ti  Ti4035  1  0.05268326  0.50319399  0.62450641  1.0
  Ti  Ti4036  1  0.05268326  0.66986066  0.62450641  1.0
  Ti  Ti4037  1  0.05268326  0.83652733  0.62450641  1.0
  Ti  Ti4038  1  0.13601659  0.00319399  0.62450641  1.0
  Ti  Ti4039  1  0.13601659  0.16986066  0.62450641  1.0
  Ti  Ti4040  1  0.13601659  0.33652733  0.62450641  1.0
  Ti  Ti4041  1  0.13601659  0.50319399  0.62450641  1.0
  Ti  Ti4042  1  0.13601659  0.66986066  0.62450641  1.0
  Ti  Ti4043  1  0.13601659  0.83652733  0.62450641  1.0
  Ti  Ti4044  1  0.21934993  0.00319399  0.62450641  1.0
  Ti  Ti4045  1  0.21934993  0.16986066  0.62450641  1.0
  Ti  Ti4046  1  0.21934993  0.33652733  0.62450641  1.0
  Ti  Ti4047  1  0.21934993  0.50319399  0.62450641  1.0
  Ti  Ti4048  1  0.21934993  0.66986066  0.62450641  1.0
  Ti  Ti4049  1  0.21934993  0.83652733  0.62450641  1.0
  Ti  Ti4050  1  0.30268326  0.00319399  0.62450641  1.0
  Ti  Ti4051  1  0.30268326  0.16986066  0.62450641  1.0
  Ti  Ti4052  1  0.30268326  0.33652733  0.62450641  1.0
  Ti  Ti4053  1  0.30268326  0.50319399  0.62450641  1.0
  Ti  Ti4054  1  0.30268326  0.66986066  0.62450641  1.0
  Ti  Ti4055  1  0.30268326  0.83652733  0.62450641  1.0
  Ti  Ti4056  1  0.38601659  0.00319399  0.62450641  1.0
  Ti  Ti4057  1  0.38601659  0.16986066  0.62450641  1.0
  Ti  Ti4058  1  0.38601659  0.33652733  0.62450641  1.0
  Ti  Ti4059  1  0.38601659  0.50319399  0.62450641  1.0
  Ti  Ti4060  1  0.38601659  0.66986066  0.62450641  1.0
  Ti  Ti4061  1  0.38601659  0.83652733  0.62450641  1.0
  Ti  Ti4062  1  0.46934993  0.00319399  0.62450641  1.0
  Ti  Ti4063  1  0.46934993  0.16986066  0.62450641  1.0
  Ti  Ti4064  1  0.46934993  0.33652733  0.62450641  1.0
  Ti  Ti4065  1  0.46934993  0.50319399  0.62450641  1.0
  Ti  Ti4066  1  0.46934993  0.66986066  0.62450641  1.0
  Ti  Ti4067  1  0.46934993  0.83652733  0.62450641  1.0
  Ti  Ti4068  1  0.55268326  0.00319399  0.62450641  1.0
  Ti  Ti4069  1  0.55268326  0.16986066  0.62450641  1.0
  Ti  Ti4070  1  0.55268326  0.33652733  0.62450641  1.0
  Ti  Ti4071  1  0.55268326  0.50319399  0.62450641  1.0
  Ti  Ti4072  1  0.55268326  0.66986066  0.62450641  1.0
  Ti  Ti4073  1  0.55268326  0.83652733  0.62450641  1.0
  Ti  Ti4074  1  0.63601659  0.00319399  0.62450641  1.0
  Ti  Ti4075  1  0.63601659  0.16986066  0.62450641  1.0
  Ti  Ti4076  1  0.63601659  0.33652733  0.62450641  1.0
  Ti  Ti4077  1  0.63601659  0.50319399  0.62450641  1.0
  Ti  Ti4078  1  0.63601659  0.66986066  0.62450641  1.0
  Ti  Ti4079  1  0.63601659  0.83652733  0.62450641  1.0
  Ti  Ti4080  1  0.71934993  0.00319399  0.62450641  1.0
  Ti  Ti4081  1  0.71934993  0.16986066  0.62450641  1.0
  Ti  Ti4082  1  0.71934993  0.33652733  0.62450641  1.0
  Ti  Ti4083  1  0.71934993  0.50319399  0.62450641  1.0
  Ti  Ti4084  1  0.71934993  0.66986066  0.62450641  1.0
  Ti  Ti4085  1  0.71934993  0.83652733  0.62450641  1.0
  Ti  Ti4086  1  0.80268326  0.00319399  0.62450641  1.0
  Ti  Ti4087  1  0.80268326  0.16986066  0.62450641  1.0
  Ti  Ti4088  1  0.80268326  0.33652733  0.62450641  1.0
  Ti  Ti4089  1  0.80268326  0.50319399  0.62450641  1.0
  Ti  Ti4090  1  0.80268326  0.66986066  0.62450641  1.0
  Ti  Ti4091  1  0.80268326  0.83652733  0.62450641  1.0
  Ti  Ti4092  1  0.88601659  0.00319399  0.62450641  1.0
  Ti  Ti4093  1  0.88601659  0.16986066  0.62450641  1.0
  Ti  Ti4094  1  0.88601659  0.33652733  0.62450641  1.0
  Ti  Ti4095  1  0.88601659  0.50319399  0.62450641  1.0
  Ti  Ti4096  1  0.88601659  0.66986066  0.62450641  1.0
  Ti  Ti4097  1  0.88601659  0.83652733  0.62450641  1.0
  Ti  Ti4098  1  0.96934993  0.00319399  0.62450641  1.0
  Ti  Ti4099  1  0.96934993  0.16986066  0.62450641  1.0
  Ti  Ti4100  1  0.96934993  0.33652733  0.62450641  1.0
  Ti  Ti4101  1  0.96934993  0.50319399  0.62450641  1.0
  Ti  Ti4102  1  0.96934993  0.66986066  0.62450641  1.0
  Ti  Ti4103  1  0.96934993  0.83652733  0.62450641  1.0
  Ti  Ti4104  1  0.07649278  0.01509875  0.55307784  1.0
  Ti  Ti4105  1  0.07649278  0.18176542  0.55307784  1.0
  Ti  Ti4106  1  0.07649278  0.34843209  0.55307784  1.0
  Ti  Ti4107  1  0.07649278  0.51509875  0.55307784  1.0
  Ti  Ti4108  1  0.07649278  0.68176542  0.55307784  1.0
  Ti  Ti4109  1  0.07649278  0.84843209  0.55307784  1.0
  Ti  Ti4110  1  0.15982612  0.01509875  0.55307784  1.0
  Ti  Ti4111  1  0.15982612  0.18176542  0.55307784  1.0
  Ti  Ti4112  1  0.15982612  0.34843209  0.55307784  1.0
  Ti  Ti4113  1  0.15982612  0.51509875  0.55307784  1.0
  Ti  Ti4114  1  0.15982612  0.68176542  0.55307784  1.0
  Ti  Ti4115  1  0.15982612  0.84843209  0.55307784  1.0
  Ti  Ti4116  1  0.24315945  0.01509875  0.55307784  1.0
  Ti  Ti4117  1  0.24315945  0.18176542  0.55307784  1.0
  Ti  Ti4118  1  0.24315945  0.34843209  0.55307784  1.0
  Ti  Ti4119  1  0.24315945  0.51509875  0.55307784  1.0
  Ti  Ti4120  1  0.24315945  0.68176542  0.55307784  1.0
  Ti  Ti4121  1  0.24315945  0.84843209  0.55307784  1.0
  Ti  Ti4122  1  0.32649278  0.01509875  0.55307784  1.0
  Ti  Ti4123  1  0.32649278  0.18176542  0.55307784  1.0
  Ti  Ti4124  1  0.32649278  0.34843209  0.55307784  1.0
  Ti  Ti4125  1  0.32649278  0.51509875  0.55307784  1.0
  Ti  Ti4126  1  0.32649278  0.68176542  0.55307784  1.0
  Ti  Ti4127  1  0.32649278  0.84843209  0.55307784  1.0
  Ti  Ti4128  1  0.40982612  0.01509875  0.55307784  1.0
  Ti  Ti4129  1  0.40982612  0.18176542  0.55307784  1.0
  Ti  Ti4130  1  0.40982612  0.34843209  0.55307784  1.0
  Ti  Ti4131  1  0.40982612  0.51509875  0.55307784  1.0
  Ti  Ti4132  1  0.40982612  0.68176542  0.55307784  1.0
  Ti  Ti4133  1  0.40982612  0.84843209  0.55307784  1.0
  Ti  Ti4134  1  0.49315945  0.01509875  0.55307784  1.0
  Ti  Ti4135  1  0.49315945  0.18176542  0.55307784  1.0
  Ti  Ti4136  1  0.49315945  0.34843209  0.55307784  1.0
  Ti  Ti4137  1  0.49315945  0.51509875  0.55307784  1.0
  Ti  Ti4138  1  0.49315945  0.68176542  0.55307784  1.0
  Ti  Ti4139  1  0.49315945  0.84843209  0.55307784  1.0
  Ti  Ti4140  1  0.57649278  0.01509875  0.55307784  1.0
  Ti  Ti4141  1  0.57649278  0.18176542  0.55307784  1.0
  Ti  Ti4142  1  0.57649278  0.34843209  0.55307784  1.0
  Ti  Ti4143  1  0.57649278  0.51509875  0.55307784  1.0
  Ti  Ti4144  1  0.57649278  0.68176542  0.55307784  1.0
  Ti  Ti4145  1  0.57649278  0.84843209  0.55307784  1.0
  Ti  Ti4146  1  0.65982612  0.01509875  0.55307784  1.0
  Ti  Ti4147  1  0.65982612  0.18176542  0.55307784  1.0
  Ti  Ti4148  1  0.65982612  0.34843209  0.55307784  1.0
  Ti  Ti4149  1  0.65982612  0.51509875  0.55307784  1.0
  Ti  Ti4150  1  0.65982612  0.68176542  0.55307784  1.0
  Ti  Ti4151  1  0.65982612  0.84843209  0.55307784  1.0
  Ti  Ti4152  1  0.74315945  0.01509875  0.55307784  1.0
  Ti  Ti4153  1  0.74315945  0.18176542  0.55307784  1.0
  Ti  Ti4154  1  0.74315945  0.34843209  0.55307784  1.0
  Ti  Ti4155  1  0.74315945  0.51509875  0.55307784  1.0
  Ti  Ti4156  1  0.74315945  0.68176542  0.55307784  1.0
  Ti  Ti4157  1  0.74315945  0.84843209  0.55307784  1.0
  Ti  Ti4158  1  0.82649278  0.01509875  0.55307784  1.0
  Ti  Ti4159  1  0.82649278  0.18176542  0.55307784  1.0
  Ti  Ti4160  1  0.82649278  0.34843209  0.55307784  1.0
  Ti  Ti4161  1  0.82649278  0.51509875  0.55307784  1.0
  Ti  Ti4162  1  0.82649278  0.68176542  0.55307784  1.0
  Ti  Ti4163  1  0.82649278  0.84843209  0.55307784  1.0
  Ti  Ti4164  1  0.90982612  0.01509875  0.55307784  1.0
  Ti  Ti4165  1  0.90982612  0.18176542  0.55307784  1.0
  Ti  Ti4166  1  0.90982612  0.34843209  0.55307784  1.0
  Ti  Ti4167  1  0.90982612  0.51509875  0.55307784  1.0
  Ti  Ti4168  1  0.90982612  0.68176542  0.55307784  1.0
  Ti  Ti4169  1  0.90982612  0.84843209  0.55307784  1.0
  Ti  Ti4170  1  0.99315945  0.01509875  0.55307784  1.0
  Ti  Ti4171  1  0.99315945  0.18176542  0.55307784  1.0
  Ti  Ti4172  1  0.99315945  0.34843209  0.55307784  1.0
  Ti  Ti4173  1  0.99315945  0.51509875  0.55307784  1.0
  Ti  Ti4174  1  0.99315945  0.68176542  0.55307784  1.0
  Ti  Ti4175  1  0.99315945  0.84843209  0.55307784  1.0
  Ti  Ti4176  1  0.05642959  0.12248794  0.61715183  1.0
  Ti  Ti4177  1  0.05642959  0.28915461  0.61715183  1.0
  Ti  Ti4178  1  0.05642959  0.45582127  0.61715183  1.0
  Ti  Ti4179  1  0.05642959  0.62248794  0.61715183  1.0
  Ti  Ti4180  1  0.05642959  0.78915461  0.61715183  1.0
  Ti  Ti4181  1  0.05642959  0.95582127  0.61715183  1.0
  Ti  Ti4182  1  0.13976293  0.12248794  0.61715183  1.0
  Ti  Ti4183  1  0.13976293  0.28915461  0.61715183  1.0
  Ti  Ti4184  1  0.13976293  0.45582127  0.61715183  1.0
  Ti  Ti4185  1  0.13976293  0.62248794  0.61715183  1.0
  Ti  Ti4186  1  0.13976293  0.78915461  0.61715183  1.0
  Ti  Ti4187  1  0.13976293  0.95582127  0.61715183  1.0
  Ti  Ti4188  1  0.22309626  0.12248794  0.61715183  1.0
  Ti  Ti4189  1  0.22309626  0.28915461  0.61715183  1.0
  Ti  Ti4190  1  0.22309626  0.45582127  0.61715183  1.0
  Ti  Ti4191  1  0.22309626  0.62248794  0.61715183  1.0
  Ti  Ti4192  1  0.22309626  0.78915461  0.61715183  1.0
  Ti  Ti4193  1  0.22309626  0.95582127  0.61715183  1.0
  Ti  Ti4194  1  0.30642959  0.12248794  0.61715183  1.0
  Ti  Ti4195  1  0.30642959  0.28915461  0.61715183  1.0
  Ti  Ti4196  1  0.30642959  0.45582127  0.61715183  1.0
  Ti  Ti4197  1  0.30642959  0.62248794  0.61715183  1.0
  Ti  Ti4198  1  0.30642959  0.78915461  0.61715183  1.0
  Ti  Ti4199  1  0.30642959  0.95582127  0.61715183  1.0
  Ti  Ti4200  1  0.38976293  0.12248794  0.61715183  1.0
  Ti  Ti4201  1  0.38976293  0.28915461  0.61715183  1.0
  Ti  Ti4202  1  0.38976293  0.45582127  0.61715183  1.0
  Ti  Ti4203  1  0.38976293  0.62248794  0.61715183  1.0
  Ti  Ti4204  1  0.38976293  0.78915461  0.61715183  1.0
  Ti  Ti4205  1  0.38976293  0.95582127  0.61715183  1.0
  Ti  Ti4206  1  0.47309626  0.12248794  0.61715183  1.0
  Ti  Ti4207  1  0.47309626  0.28915461  0.61715183  1.0
  Ti  Ti4208  1  0.47309626  0.45582127  0.61715183  1.0
  Ti  Ti4209  1  0.47309626  0.62248794  0.61715183  1.0
  Ti  Ti4210  1  0.47309626  0.78915461  0.61715183  1.0
  Ti  Ti4211  1  0.47309626  0.95582127  0.61715183  1.0
  Ti  Ti4212  1  0.55642959  0.12248794  0.61715183  1.0
  Ti  Ti4213  1  0.55642959  0.28915461  0.61715183  1.0
  Ti  Ti4214  1  0.55642959  0.45582127  0.61715183  1.0
  Ti  Ti4215  1  0.55642959  0.62248794  0.61715183  1.0
  Ti  Ti4216  1  0.55642959  0.78915461  0.61715183  1.0
  Ti  Ti4217  1  0.55642959  0.95582127  0.61715183  1.0
  Ti  Ti4218  1  0.63976293  0.12248794  0.61715183  1.0
  Ti  Ti4219  1  0.63976293  0.28915461  0.61715183  1.0
  Ti  Ti4220  1  0.63976293  0.45582127  0.61715183  1.0
  Ti  Ti4221  1  0.63976293  0.62248794  0.61715183  1.0
  Ti  Ti4222  1  0.63976293  0.78915461  0.61715183  1.0
  Ti  Ti4223  1  0.63976293  0.95582127  0.61715183  1.0
  Ti  Ti4224  1  0.72309626  0.12248794  0.61715183  1.0
  Ti  Ti4225  1  0.72309626  0.28915461  0.61715183  1.0
  Ti  Ti4226  1  0.72309626  0.45582127  0.61715183  1.0
  Ti  Ti4227  1  0.72309626  0.62248794  0.61715183  1.0
  Ti  Ti4228  1  0.72309626  0.78915461  0.61715183  1.0
  Ti  Ti4229  1  0.72309626  0.95582127  0.61715183  1.0
  Ti  Ti4230  1  0.80642959  0.12248794  0.61715183  1.0
  Ti  Ti4231  1  0.80642959  0.28915461  0.61715183  1.0
  Ti  Ti4232  1  0.80642959  0.45582127  0.61715183  1.0
  Ti  Ti4233  1  0.80642959  0.62248794  0.61715183  1.0
  Ti  Ti4234  1  0.80642959  0.78915461  0.61715183  1.0
  Ti  Ti4235  1  0.80642959  0.95582127  0.61715183  1.0
  Ti  Ti4236  1  0.88976293  0.12248794  0.61715183  1.0
  Ti  Ti4237  1  0.88976293  0.28915461  0.61715183  1.0
  Ti  Ti4238  1  0.88976293  0.45582127  0.61715183  1.0
  Ti  Ti4239  1  0.88976293  0.62248794  0.61715183  1.0
  Ti  Ti4240  1  0.88976293  0.78915461  0.61715183  1.0
  Ti  Ti4241  1  0.88976293  0.95582127  0.61715183  1.0
  Ti  Ti4242  1  0.97309626  0.12248794  0.61715183  1.0
  Ti  Ti4243  1  0.97309626  0.28915461  0.61715183  1.0
  Ti  Ti4244  1  0.97309626  0.45582127  0.61715183  1.0
  Ti  Ti4245  1  0.97309626  0.62248794  0.61715183  1.0
  Ti  Ti4246  1  0.97309626  0.78915461  0.61715183  1.0
  Ti  Ti4247  1  0.97309626  0.95582127  0.61715183  1.0
  Ti  Ti4248  1  0.08023912  0.13439270  0.54572326  1.0
  Ti  Ti4249  1  0.08023912  0.30105937  0.54572326  1.0
  Ti  Ti4250  1  0.08023912  0.46772604  0.54572326  1.0
  Ti  Ti4251  1  0.08023912  0.63439270  0.54572326  1.0
  Ti  Ti4252  1  0.08023912  0.80105937  0.54572326  1.0
  Ti  Ti4253  1  0.08023912  0.96772604  0.54572326  1.0
  Ti  Ti4254  1  0.16357245  0.13439270  0.54572326  1.0
  Ti  Ti4255  1  0.16357245  0.30105937  0.54572326  1.0
  Ti  Ti4256  1  0.16357245  0.46772604  0.54572326  1.0
  Ti  Ti4257  1  0.16357245  0.63439270  0.54572326  1.0
  Ti  Ti4258  1  0.16357245  0.80105937  0.54572326  1.0
  Ti  Ti4259  1  0.16357245  0.96772604  0.54572326  1.0
  Ti  Ti4260  1  0.24690578  0.13439270  0.54572326  1.0
  Ti  Ti4261  1  0.24690578  0.30105937  0.54572326  1.0
  Ti  Ti4262  1  0.24690578  0.46772604  0.54572326  1.0
  Ti  Ti4263  1  0.24690578  0.63439270  0.54572326  1.0
  Ti  Ti4264  1  0.24690578  0.80105937  0.54572326  1.0
  Ti  Ti4265  1  0.24690578  0.96772604  0.54572326  1.0
  Ti  Ti4266  1  0.33023912  0.13439270  0.54572326  1.0
  Ti  Ti4267  1  0.33023912  0.30105937  0.54572326  1.0
  Ti  Ti4268  1  0.33023912  0.46772604  0.54572326  1.0
  Ti  Ti4269  1  0.33023912  0.63439270  0.54572326  1.0
  Ti  Ti4270  1  0.33023912  0.80105937  0.54572326  1.0
  Ti  Ti4271  1  0.33023912  0.96772604  0.54572326  1.0
  Ti  Ti4272  1  0.41357245  0.13439270  0.54572326  1.0
  Ti  Ti4273  1  0.41357245  0.30105937  0.54572326  1.0
  Ti  Ti4274  1  0.41357245  0.46772604  0.54572326  1.0
  Ti  Ti4275  1  0.41357245  0.63439270  0.54572326  1.0
  Ti  Ti4276  1  0.41357245  0.80105937  0.54572326  1.0
  Ti  Ti4277  1  0.41357245  0.96772604  0.54572326  1.0
  Ti  Ti4278  1  0.49690578  0.13439270  0.54572326  1.0
  Ti  Ti4279  1  0.49690578  0.30105937  0.54572326  1.0
  Ti  Ti4280  1  0.49690578  0.46772604  0.54572326  1.0
  Ti  Ti4281  1  0.49690578  0.63439270  0.54572326  1.0
  Ti  Ti4282  1  0.49690578  0.80105937  0.54572326  1.0
  Ti  Ti4283  1  0.49690578  0.96772604  0.54572326  1.0
  Ti  Ti4284  1  0.58023912  0.13439270  0.54572326  1.0
  Ti  Ti4285  1  0.58023912  0.30105937  0.54572326  1.0
  Ti  Ti4286  1  0.58023912  0.46772604  0.54572326  1.0
  Ti  Ti4287  1  0.58023912  0.63439270  0.54572326  1.0
  Ti  Ti4288  1  0.58023912  0.80105937  0.54572326  1.0
  Ti  Ti4289  1  0.58023912  0.96772604  0.54572326  1.0
  Ti  Ti4290  1  0.66357245  0.13439270  0.54572326  1.0
  Ti  Ti4291  1  0.66357245  0.30105937  0.54572326  1.0
  Ti  Ti4292  1  0.66357245  0.46772604  0.54572326  1.0
  Ti  Ti4293  1  0.66357245  0.63439270  0.54572326  1.0
  Ti  Ti4294  1  0.66357245  0.80105937  0.54572326  1.0
  Ti  Ti4295  1  0.66357245  0.96772604  0.54572326  1.0
  Ti  Ti4296  1  0.74690578  0.13439270  0.54572326  1.0
  Ti  Ti4297  1  0.74690578  0.30105937  0.54572326  1.0
  Ti  Ti4298  1  0.74690578  0.46772604  0.54572326  1.0
  Ti  Ti4299  1  0.74690578  0.63439270  0.54572326  1.0
  Ti  Ti4300  1  0.74690578  0.80105937  0.54572326  1.0
  Ti  Ti4301  1  0.74690578  0.96772604  0.54572326  1.0
  Ti  Ti4302  1  0.83023912  0.13439270  0.54572326  1.0
  Ti  Ti4303  1  0.83023912  0.30105937  0.54572326  1.0
  Ti  Ti4304  1  0.83023912  0.46772604  0.54572326  1.0
  Ti  Ti4305  1  0.83023912  0.63439270  0.54572326  1.0
  Ti  Ti4306  1  0.83023912  0.80105937  0.54572326  1.0
  Ti  Ti4307  1  0.83023912  0.96772604  0.54572326  1.0
  Ti  Ti4308  1  0.91357245  0.13439270  0.54572326  1.0
  Ti  Ti4309  1  0.91357245  0.30105937  0.54572326  1.0
  Ti  Ti4310  1  0.91357245  0.46772604  0.54572326  1.0
  Ti  Ti4311  1  0.91357245  0.63439270  0.54572326  1.0
  Ti  Ti4312  1  0.91357245  0.80105937  0.54572326  1.0
  Ti  Ti4313  1  0.91357245  0.96772604  0.54572326  1.0
  Ti  Ti4314  1  0.99690578  0.13439270  0.54572326  1.0
  Ti  Ti4315  1  0.99690578  0.30105937  0.54572326  1.0
  Ti  Ti4316  1  0.99690578  0.46772604  0.54572326  1.0
  Ti  Ti4317  1  0.99690578  0.63439270  0.54572326  1.0
  Ti  Ti4318  1  0.99690578  0.80105937  0.54572326  1.0
  Ti  Ti4319  1  0.99690578  0.96772604  0.54572326  1.0
  Ti  Ti4320  1  0.04946926  0.04711362  0.63442542  1.0
  Ti  Ti4321  1  0.04946926  0.21378029  0.63442542  1.0
  Ti  Ti4322  1  0.04946926  0.38044696  0.63442542  1.0
  Ti  Ti4323  1  0.04946926  0.54711362  0.63442542  1.0
  Ti  Ti4324  1  0.04946926  0.71378029  0.63442542  1.0
  Ti  Ti4325  1  0.04946926  0.88044696  0.63442542  1.0
  Ti  Ti4326  1  0.13280260  0.04711362  0.63442542  1.0
  Ti  Ti4327  1  0.13280260  0.21378029  0.63442542  1.0
  Ti  Ti4328  1  0.13280260  0.38044696  0.63442542  1.0
  Ti  Ti4329  1  0.13280260  0.54711362  0.63442542  1.0
  Ti  Ti4330  1  0.13280260  0.71378029  0.63442542  1.0
  Ti  Ti4331  1  0.13280260  0.88044696  0.63442542  1.0
  Ti  Ti4332  1  0.21613593  0.04711362  0.63442542  1.0
  Ti  Ti4333  1  0.21613593  0.21378029  0.63442542  1.0
  Ti  Ti4334  1  0.21613593  0.38044696  0.63442542  1.0
  Ti  Ti4335  1  0.21613593  0.54711362  0.63442542  1.0
  Ti  Ti4336  1  0.21613593  0.71378029  0.63442542  1.0
  Ti  Ti4337  1  0.21613593  0.88044696  0.63442542  1.0
  Ti  Ti4338  1  0.29946926  0.04711362  0.63442542  1.0
  Ti  Ti4339  1  0.29946926  0.21378029  0.63442542  1.0
  Ti  Ti4340  1  0.29946926  0.38044696  0.63442542  1.0
  Ti  Ti4341  1  0.29946926  0.54711362  0.63442542  1.0
  Ti  Ti4342  1  0.29946926  0.71378029  0.63442542  1.0
  Ti  Ti4343  1  0.29946926  0.88044696  0.63442542  1.0
  Ti  Ti4344  1  0.38280260  0.04711362  0.63442542  1.0
  Ti  Ti4345  1  0.38280260  0.21378029  0.63442542  1.0
  Ti  Ti4346  1  0.38280260  0.38044696  0.63442542  1.0
  Ti  Ti4347  1  0.38280260  0.54711362  0.63442542  1.0
  Ti  Ti4348  1  0.38280260  0.71378029  0.63442542  1.0
  Ti  Ti4349  1  0.38280260  0.88044696  0.63442542  1.0
  Ti  Ti4350  1  0.46613593  0.04711362  0.63442542  1.0
  Ti  Ti4351  1  0.46613593  0.21378029  0.63442542  1.0
  Ti  Ti4352  1  0.46613593  0.38044696  0.63442542  1.0
  Ti  Ti4353  1  0.46613593  0.54711362  0.63442542  1.0
  Ti  Ti4354  1  0.46613593  0.71378029  0.63442542  1.0
  Ti  Ti4355  1  0.46613593  0.88044696  0.63442542  1.0
  Ti  Ti4356  1  0.54946926  0.04711362  0.63442542  1.0
  Ti  Ti4357  1  0.54946926  0.21378029  0.63442542  1.0
  Ti  Ti4358  1  0.54946926  0.38044696  0.63442542  1.0
  Ti  Ti4359  1  0.54946926  0.54711362  0.63442542  1.0
  Ti  Ti4360  1  0.54946926  0.71378029  0.63442542  1.0
  Ti  Ti4361  1  0.54946926  0.88044696  0.63442542  1.0
  Ti  Ti4362  1  0.63280260  0.04711362  0.63442542  1.0
  Ti  Ti4363  1  0.63280260  0.21378029  0.63442542  1.0
  Ti  Ti4364  1  0.63280260  0.38044696  0.63442542  1.0
  Ti  Ti4365  1  0.63280260  0.54711362  0.63442542  1.0
  Ti  Ti4366  1  0.63280260  0.71378029  0.63442542  1.0
  Ti  Ti4367  1  0.63280260  0.88044696  0.63442542  1.0
  Ti  Ti4368  1  0.71613593  0.04711362  0.63442542  1.0
  Ti  Ti4369  1  0.71613593  0.21378029  0.63442542  1.0
  Ti  Ti4370  1  0.71613593  0.38044696  0.63442542  1.0
  Ti  Ti4371  1  0.71613593  0.54711362  0.63442542  1.0
  Ti  Ti4372  1  0.71613593  0.71378029  0.63442542  1.0
  Ti  Ti4373  1  0.71613593  0.88044696  0.63442542  1.0
  Ti  Ti4374  1  0.79946926  0.04711362  0.63442542  1.0
  Ti  Ti4375  1  0.79946926  0.21378029  0.63442542  1.0
  Ti  Ti4376  1  0.79946926  0.38044696  0.63442542  1.0
  Ti  Ti4377  1  0.79946926  0.54711362  0.63442542  1.0
  Ti  Ti4378  1  0.79946926  0.71378029  0.63442542  1.0
  Ti  Ti4379  1  0.79946926  0.88044696  0.63442542  1.0
  Ti  Ti4380  1  0.88280260  0.04711362  0.63442542  1.0
  Ti  Ti4381  1  0.88280260  0.21378029  0.63442542  1.0
  Ti  Ti4382  1  0.88280260  0.38044696  0.63442542  1.0
  Ti  Ti4383  1  0.88280260  0.54711362  0.63442542  1.0
  Ti  Ti4384  1  0.88280260  0.71378029  0.63442542  1.0
  Ti  Ti4385  1  0.88280260  0.88044696  0.63442542  1.0
  Ti  Ti4386  1  0.96613593  0.04711362  0.63442542  1.0
  Ti  Ti4387  1  0.96613593  0.21378029  0.63442542  1.0
  Ti  Ti4388  1  0.96613593  0.38044696  0.63442542  1.0
  Ti  Ti4389  1  0.96613593  0.54711362  0.63442542  1.0
  Ti  Ti4390  1  0.96613593  0.71378029  0.63442542  1.0
  Ti  Ti4391  1  0.96613593  0.88044696  0.63442542  1.0
  Ti  Ti4392  1  0.07327879  0.05901839  0.56299685  1.0
  Ti  Ti4393  1  0.07327879  0.22568505  0.56299685  1.0
  Ti  Ti4394  1  0.07327879  0.39235172  0.56299685  1.0
  Ti  Ti4395  1  0.07327879  0.55901839  0.56299685  1.0
  Ti  Ti4396  1  0.07327879  0.72568505  0.56299685  1.0
  Ti  Ti4397  1  0.07327879  0.89235172  0.56299685  1.0
  Ti  Ti4398  1  0.15661212  0.05901839  0.56299685  1.0
  Ti  Ti4399  1  0.15661212  0.22568505  0.56299685  1.0
  Ti  Ti4400  1  0.15661212  0.39235172  0.56299685  1.0
  Ti  Ti4401  1  0.15661212  0.55901839  0.56299685  1.0
  Ti  Ti4402  1  0.15661212  0.72568505  0.56299685  1.0
  Ti  Ti4403  1  0.15661212  0.89235172  0.56299685  1.0
  Ti  Ti4404  1  0.23994546  0.05901839  0.56299685  1.0
  Ti  Ti4405  1  0.23994546  0.22568505  0.56299685  1.0
  Ti  Ti4406  1  0.23994546  0.39235172  0.56299685  1.0
  Ti  Ti4407  1  0.23994546  0.55901839  0.56299685  1.0
  Ti  Ti4408  1  0.23994546  0.72568505  0.56299685  1.0
  Ti  Ti4409  1  0.23994546  0.89235172  0.56299685  1.0
  Ti  Ti4410  1  0.32327879  0.05901839  0.56299685  1.0
  Ti  Ti4411  1  0.32327879  0.22568505  0.56299685  1.0
  Ti  Ti4412  1  0.32327879  0.39235172  0.56299685  1.0
  Ti  Ti4413  1  0.32327879  0.55901839  0.56299685  1.0
  Ti  Ti4414  1  0.32327879  0.72568505  0.56299685  1.0
  Ti  Ti4415  1  0.32327879  0.89235172  0.56299685  1.0
  Ti  Ti4416  1  0.40661212  0.05901839  0.56299685  1.0
  Ti  Ti4417  1  0.40661212  0.22568505  0.56299685  1.0
  Ti  Ti4418  1  0.40661212  0.39235172  0.56299685  1.0
  Ti  Ti4419  1  0.40661212  0.55901839  0.56299685  1.0
  Ti  Ti4420  1  0.40661212  0.72568505  0.56299685  1.0
  Ti  Ti4421  1  0.40661212  0.89235172  0.56299685  1.0
  Ti  Ti4422  1  0.48994546  0.05901839  0.56299685  1.0
  Ti  Ti4423  1  0.48994546  0.22568505  0.56299685  1.0
  Ti  Ti4424  1  0.48994546  0.39235172  0.56299685  1.0
  Ti  Ti4425  1  0.48994546  0.55901839  0.56299685  1.0
  Ti  Ti4426  1  0.48994546  0.72568505  0.56299685  1.0
  Ti  Ti4427  1  0.48994546  0.89235172  0.56299685  1.0
  Ti  Ti4428  1  0.57327879  0.05901839  0.56299685  1.0
  Ti  Ti4429  1  0.57327879  0.22568505  0.56299685  1.0
  Ti  Ti4430  1  0.57327879  0.39235172  0.56299685  1.0
  Ti  Ti4431  1  0.57327879  0.55901839  0.56299685  1.0
  Ti  Ti4432  1  0.57327879  0.72568505  0.56299685  1.0
  Ti  Ti4433  1  0.57327879  0.89235172  0.56299685  1.0
  Ti  Ti4434  1  0.65661212  0.05901839  0.56299685  1.0
  Ti  Ti4435  1  0.65661212  0.22568505  0.56299685  1.0
  Ti  Ti4436  1  0.65661212  0.39235172  0.56299685  1.0
  Ti  Ti4437  1  0.65661212  0.55901839  0.56299685  1.0
  Ti  Ti4438  1  0.65661212  0.72568505  0.56299685  1.0
  Ti  Ti4439  1  0.65661212  0.89235172  0.56299685  1.0
  Ti  Ti4440  1  0.73994546  0.05901839  0.56299685  1.0
  Ti  Ti4441  1  0.73994546  0.22568505  0.56299685  1.0
  Ti  Ti4442  1  0.73994546  0.39235172  0.56299685  1.0
  Ti  Ti4443  1  0.73994546  0.55901839  0.56299685  1.0
  Ti  Ti4444  1  0.73994546  0.72568505  0.56299685  1.0
  Ti  Ti4445  1  0.73994546  0.89235172  0.56299685  1.0
  Ti  Ti4446  1  0.82327879  0.05901839  0.56299685  1.0
  Ti  Ti4447  1  0.82327879  0.22568505  0.56299685  1.0
  Ti  Ti4448  1  0.82327879  0.39235172  0.56299685  1.0
  Ti  Ti4449  1  0.82327879  0.55901839  0.56299685  1.0
  Ti  Ti4450  1  0.82327879  0.72568505  0.56299685  1.0
  Ti  Ti4451  1  0.82327879  0.89235172  0.56299685  1.0
  Ti  Ti4452  1  0.90661212  0.05901839  0.56299685  1.0
  Ti  Ti4453  1  0.90661212  0.22568505  0.56299685  1.0
  Ti  Ti4454  1  0.90661212  0.39235172  0.56299685  1.0
  Ti  Ti4455  1  0.90661212  0.55901839  0.56299685  1.0
  Ti  Ti4456  1  0.90661212  0.72568505  0.56299685  1.0
  Ti  Ti4457  1  0.90661212  0.89235172  0.56299685  1.0
  Ti  Ti4458  1  0.98994546  0.05901839  0.56299685  1.0
  Ti  Ti4459  1  0.98994546  0.22568505  0.56299685  1.0
  Ti  Ti4460  1  0.98994546  0.39235172  0.56299685  1.0
  Ti  Ti4461  1  0.98994546  0.55901839  0.56299685  1.0
  Ti  Ti4462  1  0.98994546  0.72568505  0.56299685  1.0
  Ti  Ti4463  1  0.98994546  0.89235172  0.56299685  1.0
  Ti  Ti4464  1  0.07947196  0.04303330  0.67288110  1.0
  Ti  Ti4465  1  0.07947196  0.20969997  0.67288110  1.0
  Ti  Ti4466  1  0.07947196  0.37636664  0.67288110  1.0
  Ti  Ti4467  1  0.07947196  0.54303330  0.67288110  1.0
  Ti  Ti4468  1  0.07947196  0.70969997  0.67288110  1.0
  Ti  Ti4469  1  0.07947196  0.87636664  0.67288110  1.0
  Ti  Ti4470  1  0.16280529  0.04303330  0.67288110  1.0
  Ti  Ti4471  1  0.16280529  0.20969997  0.67288110  1.0
  Ti  Ti4472  1  0.16280529  0.37636664  0.67288110  1.0
  Ti  Ti4473  1  0.16280529  0.54303330  0.67288110  1.0
  Ti  Ti4474  1  0.16280529  0.70969997  0.67288110  1.0
  Ti  Ti4475  1  0.16280529  0.87636664  0.67288110  1.0
  Ti  Ti4476  1  0.24613862  0.04303330  0.67288110  1.0
  Ti  Ti4477  1  0.24613862  0.20969997  0.67288110  1.0
  Ti  Ti4478  1  0.24613862  0.37636664  0.67288110  1.0
  Ti  Ti4479  1  0.24613862  0.54303330  0.67288110  1.0
  Ti  Ti4480  1  0.24613862  0.70969997  0.67288110  1.0
  Ti  Ti4481  1  0.24613862  0.87636664  0.67288110  1.0
  Ti  Ti4482  1  0.32947196  0.04303330  0.67288110  1.0
  Ti  Ti4483  1  0.32947196  0.20969997  0.67288110  1.0
  Ti  Ti4484  1  0.32947196  0.37636664  0.67288110  1.0
  Ti  Ti4485  1  0.32947196  0.54303330  0.67288110  1.0
  Ti  Ti4486  1  0.32947196  0.70969997  0.67288110  1.0
  Ti  Ti4487  1  0.32947196  0.87636664  0.67288110  1.0
  Ti  Ti4488  1  0.41280529  0.04303330  0.67288110  1.0
  Ti  Ti4489  1  0.41280529  0.20969997  0.67288110  1.0
  Ti  Ti4490  1  0.41280529  0.37636664  0.67288110  1.0
  Ti  Ti4491  1  0.41280529  0.54303330  0.67288110  1.0
  Ti  Ti4492  1  0.41280529  0.70969997  0.67288110  1.0
  Ti  Ti4493  1  0.41280529  0.87636664  0.67288110  1.0
  Ti  Ti4494  1  0.49613862  0.04303330  0.67288110  1.0
  Ti  Ti4495  1  0.49613862  0.20969997  0.67288110  1.0
  Ti  Ti4496  1  0.49613862  0.37636664  0.67288110  1.0
  Ti  Ti4497  1  0.49613862  0.54303330  0.67288110  1.0
  Ti  Ti4498  1  0.49613862  0.70969997  0.67288110  1.0
  Ti  Ti4499  1  0.49613862  0.87636664  0.67288110  1.0
  Ti  Ti4500  1  0.57947196  0.04303330  0.67288110  1.0
  Ti  Ti4501  1  0.57947196  0.20969997  0.67288110  1.0
  Ti  Ti4502  1  0.57947196  0.37636664  0.67288110  1.0
  Ti  Ti4503  1  0.57947196  0.54303330  0.67288110  1.0
  Ti  Ti4504  1  0.57947196  0.70969997  0.67288110  1.0
  Ti  Ti4505  1  0.57947196  0.87636664  0.67288110  1.0
  Ti  Ti4506  1  0.66280529  0.04303330  0.67288110  1.0
  Ti  Ti4507  1  0.66280529  0.20969997  0.67288110  1.0
  Ti  Ti4508  1  0.66280529  0.37636664  0.67288110  1.0
  Ti  Ti4509  1  0.66280529  0.54303330  0.67288110  1.0
  Ti  Ti4510  1  0.66280529  0.70969997  0.67288110  1.0
  Ti  Ti4511  1  0.66280529  0.87636664  0.67288110  1.0
  Ti  Ti4512  1  0.74613862  0.04303330  0.67288110  1.0
  Ti  Ti4513  1  0.74613862  0.20969997  0.67288110  1.0
  Ti  Ti4514  1  0.74613862  0.37636664  0.67288110  1.0
  Ti  Ti4515  1  0.74613862  0.54303330  0.67288110  1.0
  Ti  Ti4516  1  0.74613862  0.70969997  0.67288110  1.0
  Ti  Ti4517  1  0.74613862  0.87636664  0.67288110  1.0
  Ti  Ti4518  1  0.82947196  0.04303330  0.67288110  1.0
  Ti  Ti4519  1  0.82947196  0.20969997  0.67288110  1.0
  Ti  Ti4520  1  0.82947196  0.37636664  0.67288110  1.0
  Ti  Ti4521  1  0.82947196  0.54303330  0.67288110  1.0
  Ti  Ti4522  1  0.82947196  0.70969997  0.67288110  1.0
  Ti  Ti4523  1  0.82947196  0.87636664  0.67288110  1.0
  Ti  Ti4524  1  0.91280529  0.04303330  0.67288110  1.0
  Ti  Ti4525  1  0.91280529  0.20969997  0.67288110  1.0
  Ti  Ti4526  1  0.91280529  0.37636664  0.67288110  1.0
  Ti  Ti4527  1  0.91280529  0.54303330  0.67288110  1.0
  Ti  Ti4528  1  0.91280529  0.70969997  0.67288110  1.0
  Ti  Ti4529  1  0.91280529  0.87636664  0.67288110  1.0
  Ti  Ti4530  1  0.99613862  0.04303330  0.67288110  1.0
  Ti  Ti4531  1  0.99613862  0.20969997  0.67288110  1.0
  Ti  Ti4532  1  0.99613862  0.37636664  0.67288110  1.0
  Ti  Ti4533  1  0.99613862  0.54303330  0.67288110  1.0
  Ti  Ti4534  1  0.99613862  0.70969997  0.67288110  1.0
  Ti  Ti4535  1  0.99613862  0.87636664  0.67288110  1.0
  Ti  Ti4536  1  0.05566243  0.03112854  0.74430967  1.0
  Ti  Ti4537  1  0.05566243  0.19779521  0.74430967  1.0
  Ti  Ti4538  1  0.05566243  0.36446187  0.74430967  1.0
  Ti  Ti4539  1  0.05566243  0.53112854  0.74430967  1.0
  Ti  Ti4540  1  0.05566243  0.69779521  0.74430967  1.0
  Ti  Ti4541  1  0.05566243  0.86446187  0.74430967  1.0
  Ti  Ti4542  1  0.13899577  0.03112854  0.74430967  1.0
  Ti  Ti4543  1  0.13899577  0.19779521  0.74430967  1.0
  Ti  Ti4544  1  0.13899577  0.36446187  0.74430967  1.0
  Ti  Ti4545  1  0.13899577  0.53112854  0.74430967  1.0
  Ti  Ti4546  1  0.13899577  0.69779521  0.74430967  1.0
  Ti  Ti4547  1  0.13899577  0.86446187  0.74430967  1.0
  Ti  Ti4548  1  0.22232910  0.03112854  0.74430967  1.0
  Ti  Ti4549  1  0.22232910  0.19779521  0.74430967  1.0
  Ti  Ti4550  1  0.22232910  0.36446187  0.74430967  1.0
  Ti  Ti4551  1  0.22232910  0.53112854  0.74430967  1.0
  Ti  Ti4552  1  0.22232910  0.69779521  0.74430967  1.0
  Ti  Ti4553  1  0.22232910  0.86446187  0.74430967  1.0
  Ti  Ti4554  1  0.30566243  0.03112854  0.74430967  1.0
  Ti  Ti4555  1  0.30566243  0.19779521  0.74430967  1.0
  Ti  Ti4556  1  0.30566243  0.36446187  0.74430967  1.0
  Ti  Ti4557  1  0.30566243  0.53112854  0.74430967  1.0
  Ti  Ti4558  1  0.30566243  0.69779521  0.74430967  1.0
  Ti  Ti4559  1  0.30566243  0.86446187  0.74430967  1.0
  Ti  Ti4560  1  0.38899577  0.03112854  0.74430967  1.0
  Ti  Ti4561  1  0.38899577  0.19779521  0.74430967  1.0
  Ti  Ti4562  1  0.38899577  0.36446187  0.74430967  1.0
  Ti  Ti4563  1  0.38899577  0.53112854  0.74430967  1.0
  Ti  Ti4564  1  0.38899577  0.69779521  0.74430967  1.0
  Ti  Ti4565  1  0.38899577  0.86446187  0.74430967  1.0
  Ti  Ti4566  1  0.47232910  0.03112854  0.74430967  1.0
  Ti  Ti4567  1  0.47232910  0.19779521  0.74430967  1.0
  Ti  Ti4568  1  0.47232910  0.36446187  0.74430967  1.0
  Ti  Ti4569  1  0.47232910  0.53112854  0.74430967  1.0
  Ti  Ti4570  1  0.47232910  0.69779521  0.74430967  1.0
  Ti  Ti4571  1  0.47232910  0.86446187  0.74430967  1.0
  Ti  Ti4572  1  0.55566243  0.03112854  0.74430967  1.0
  Ti  Ti4573  1  0.55566243  0.19779521  0.74430967  1.0
  Ti  Ti4574  1  0.55566243  0.36446187  0.74430967  1.0
  Ti  Ti4575  1  0.55566243  0.53112854  0.74430967  1.0
  Ti  Ti4576  1  0.55566243  0.69779521  0.74430967  1.0
  Ti  Ti4577  1  0.55566243  0.86446187  0.74430967  1.0
  Ti  Ti4578  1  0.63899577  0.03112854  0.74430967  1.0
  Ti  Ti4579  1  0.63899577  0.19779521  0.74430967  1.0
  Ti  Ti4580  1  0.63899577  0.36446187  0.74430967  1.0
  Ti  Ti4581  1  0.63899577  0.53112854  0.74430967  1.0
  Ti  Ti4582  1  0.63899577  0.69779521  0.74430967  1.0
  Ti  Ti4583  1  0.63899577  0.86446187  0.74430967  1.0
  Ti  Ti4584  1  0.72232910  0.03112854  0.74430967  1.0
  Ti  Ti4585  1  0.72232910  0.19779521  0.74430967  1.0
  Ti  Ti4586  1  0.72232910  0.36446187  0.74430967  1.0
  Ti  Ti4587  1  0.72232910  0.53112854  0.74430967  1.0
  Ti  Ti4588  1  0.72232910  0.69779521  0.74430967  1.0
  Ti  Ti4589  1  0.72232910  0.86446187  0.74430967  1.0
  Ti  Ti4590  1  0.80566243  0.03112854  0.74430967  1.0
  Ti  Ti4591  1  0.80566243  0.19779521  0.74430967  1.0
  Ti  Ti4592  1  0.80566243  0.36446187  0.74430967  1.0
  Ti  Ti4593  1  0.80566243  0.53112854  0.74430967  1.0
  Ti  Ti4594  1  0.80566243  0.69779521  0.74430967  1.0
  Ti  Ti4595  1  0.80566243  0.86446187  0.74430967  1.0
  Ti  Ti4596  1  0.88899577  0.03112854  0.74430967  1.0
  Ti  Ti4597  1  0.88899577  0.19779521  0.74430967  1.0
  Ti  Ti4598  1  0.88899577  0.36446187  0.74430967  1.0
  Ti  Ti4599  1  0.88899577  0.53112854  0.74430967  1.0
  Ti  Ti4600  1  0.88899577  0.69779521  0.74430967  1.0
  Ti  Ti4601  1  0.88899577  0.86446187  0.74430967  1.0
  Ti  Ti4602  1  0.97232910  0.03112854  0.74430967  1.0
  Ti  Ti4603  1  0.97232910  0.19779521  0.74430967  1.0
  Ti  Ti4604  1  0.97232910  0.36446187  0.74430967  1.0
  Ti  Ti4605  1  0.97232910  0.53112854  0.74430967  1.0
  Ti  Ti4606  1  0.97232910  0.69779521  0.74430967  1.0
  Ti  Ti4607  1  0.97232910  0.86446187  0.74430967  1.0
  Ti  Ti4608  1  0.00138826  0.11698083  0.65133604  1.0
  Ti  Ti4609  1  0.00138826  0.28364750  0.65133604  1.0
  Ti  Ti4610  1  0.00138826  0.45031416  0.65133604  1.0
  Ti  Ti4611  1  0.00138826  0.61698083  0.65133604  1.0
  Ti  Ti4612  1  0.00138826  0.78364750  0.65133604  1.0
  Ti  Ti4613  1  0.00138826  0.95031416  0.65133604  1.0
  Ti  Ti4614  1  0.08472160  0.11698083  0.65133604  1.0
  Ti  Ti4615  1  0.08472160  0.28364750  0.65133604  1.0
  Ti  Ti4616  1  0.08472160  0.45031416  0.65133604  1.0
  Ti  Ti4617  1  0.08472160  0.61698083  0.65133604  1.0
  Ti  Ti4618  1  0.08472160  0.78364750  0.65133604  1.0
  Ti  Ti4619  1  0.08472160  0.95031416  0.65133604  1.0
  Ti  Ti4620  1  0.16805493  0.11698083  0.65133604  1.0
  Ti  Ti4621  1  0.16805493  0.28364750  0.65133604  1.0
  Ti  Ti4622  1  0.16805493  0.45031416  0.65133604  1.0
  Ti  Ti4623  1  0.16805493  0.61698083  0.65133604  1.0
  Ti  Ti4624  1  0.16805493  0.78364750  0.65133604  1.0
  Ti  Ti4625  1  0.16805493  0.95031416  0.65133604  1.0
  Ti  Ti4626  1  0.25138826  0.11698083  0.65133604  1.0
  Ti  Ti4627  1  0.25138826  0.28364750  0.65133604  1.0
  Ti  Ti4628  1  0.25138826  0.45031416  0.65133604  1.0
  Ti  Ti4629  1  0.25138826  0.61698083  0.65133604  1.0
  Ti  Ti4630  1  0.25138826  0.78364750  0.65133604  1.0
  Ti  Ti4631  1  0.25138826  0.95031416  0.65133604  1.0
  Ti  Ti4632  1  0.33472160  0.11698083  0.65133604  1.0
  Ti  Ti4633  1  0.33472160  0.28364750  0.65133604  1.0
  Ti  Ti4634  1  0.33472160  0.45031416  0.65133604  1.0
  Ti  Ti4635  1  0.33472160  0.61698083  0.65133604  1.0
  Ti  Ti4636  1  0.33472160  0.78364750  0.65133604  1.0
  Ti  Ti4637  1  0.33472160  0.95031416  0.65133604  1.0
  Ti  Ti4638  1  0.41805493  0.11698083  0.65133604  1.0
  Ti  Ti4639  1  0.41805493  0.28364750  0.65133604  1.0
  Ti  Ti4640  1  0.41805493  0.45031416  0.65133604  1.0
  Ti  Ti4641  1  0.41805493  0.61698083  0.65133604  1.0
  Ti  Ti4642  1  0.41805493  0.78364750  0.65133604  1.0
  Ti  Ti4643  1  0.41805493  0.95031416  0.65133604  1.0
  Ti  Ti4644  1  0.50138826  0.11698083  0.65133604  1.0
  Ti  Ti4645  1  0.50138826  0.28364750  0.65133604  1.0
  Ti  Ti4646  1  0.50138826  0.45031416  0.65133604  1.0
  Ti  Ti4647  1  0.50138826  0.61698083  0.65133604  1.0
  Ti  Ti4648  1  0.50138826  0.78364750  0.65133604  1.0
  Ti  Ti4649  1  0.50138826  0.95031416  0.65133604  1.0
  Ti  Ti4650  1  0.58472160  0.11698083  0.65133604  1.0
  Ti  Ti4651  1  0.58472160  0.28364750  0.65133604  1.0
  Ti  Ti4652  1  0.58472160  0.45031416  0.65133604  1.0
  Ti  Ti4653  1  0.58472160  0.61698083  0.65133604  1.0
  Ti  Ti4654  1  0.58472160  0.78364750  0.65133604  1.0
  Ti  Ti4655  1  0.58472160  0.95031416  0.65133604  1.0
  Ti  Ti4656  1  0.66805493  0.11698083  0.65133604  1.0
  Ti  Ti4657  1  0.66805493  0.28364750  0.65133604  1.0
  Ti  Ti4658  1  0.66805493  0.45031416  0.65133604  1.0
  Ti  Ti4659  1  0.66805493  0.61698083  0.65133604  1.0
  Ti  Ti4660  1  0.66805493  0.78364750  0.65133604  1.0
  Ti  Ti4661  1  0.66805493  0.95031416  0.65133604  1.0
  Ti  Ti4662  1  0.75138826  0.11698083  0.65133604  1.0
  Ti  Ti4663  1  0.75138826  0.28364750  0.65133604  1.0
  Ti  Ti4664  1  0.75138826  0.45031416  0.65133604  1.0
  Ti  Ti4665  1  0.75138826  0.61698083  0.65133604  1.0
  Ti  Ti4666  1  0.75138826  0.78364750  0.65133604  1.0
  Ti  Ti4667  1  0.75138826  0.95031416  0.65133604  1.0
  Ti  Ti4668  1  0.83472160  0.11698083  0.65133604  1.0
  Ti  Ti4669  1  0.83472160  0.28364750  0.65133604  1.0
  Ti  Ti4670  1  0.83472160  0.45031416  0.65133604  1.0
  Ti  Ti4671  1  0.83472160  0.61698083  0.65133604  1.0
  Ti  Ti4672  1  0.83472160  0.78364750  0.65133604  1.0
  Ti  Ti4673  1  0.83472160  0.95031416  0.65133604  1.0
  Ti  Ti4674  1  0.91805493  0.11698083  0.65133604  1.0
  Ti  Ti4675  1  0.91805493  0.28364750  0.65133604  1.0
  Ti  Ti4676  1  0.91805493  0.45031416  0.65133604  1.0
  Ti  Ti4677  1  0.91805493  0.61698083  0.65133604  1.0
  Ti  Ti4678  1  0.91805493  0.78364750  0.65133604  1.0
  Ti  Ti4679  1  0.91805493  0.95031416  0.65133604  1.0
  Ti  Ti4680  1  0.06091207  0.10507607  0.72276462  1.0
  Ti  Ti4681  1  0.06091207  0.27174273  0.72276462  1.0
  Ti  Ti4682  1  0.06091207  0.43840940  0.72276462  1.0
  Ti  Ti4683  1  0.06091207  0.60507607  0.72276462  1.0
  Ti  Ti4684  1  0.06091207  0.77174273  0.72276462  1.0
  Ti  Ti4685  1  0.06091207  0.93840940  0.72276462  1.0
  Ti  Ti4686  1  0.14424541  0.10507607  0.72276462  1.0
  Ti  Ti4687  1  0.14424541  0.27174273  0.72276462  1.0
  Ti  Ti4688  1  0.14424541  0.43840940  0.72276462  1.0
  Ti  Ti4689  1  0.14424541  0.60507607  0.72276462  1.0
  Ti  Ti4690  1  0.14424541  0.77174273  0.72276462  1.0
  Ti  Ti4691  1  0.14424541  0.93840940  0.72276462  1.0
  Ti  Ti4692  1  0.22757874  0.10507607  0.72276462  1.0
  Ti  Ti4693  1  0.22757874  0.27174273  0.72276462  1.0
  Ti  Ti4694  1  0.22757874  0.43840940  0.72276462  1.0
  Ti  Ti4695  1  0.22757874  0.60507607  0.72276462  1.0
  Ti  Ti4696  1  0.22757874  0.77174273  0.72276462  1.0
  Ti  Ti4697  1  0.22757874  0.93840940  0.72276462  1.0
  Ti  Ti4698  1  0.31091207  0.10507607  0.72276462  1.0
  Ti  Ti4699  1  0.31091207  0.27174273  0.72276462  1.0
  Ti  Ti4700  1  0.31091207  0.43840940  0.72276462  1.0
  Ti  Ti4701  1  0.31091207  0.60507607  0.72276462  1.0
  Ti  Ti4702  1  0.31091207  0.77174273  0.72276462  1.0
  Ti  Ti4703  1  0.31091207  0.93840940  0.72276462  1.0
  Ti  Ti4704  1  0.39424541  0.10507607  0.72276462  1.0
  Ti  Ti4705  1  0.39424541  0.27174273  0.72276462  1.0
  Ti  Ti4706  1  0.39424541  0.43840940  0.72276462  1.0
  Ti  Ti4707  1  0.39424541  0.60507607  0.72276462  1.0
  Ti  Ti4708  1  0.39424541  0.77174273  0.72276462  1.0
  Ti  Ti4709  1  0.39424541  0.93840940  0.72276462  1.0
  Ti  Ti4710  1  0.47757874  0.10507607  0.72276462  1.0
  Ti  Ti4711  1  0.47757874  0.27174273  0.72276462  1.0
  Ti  Ti4712  1  0.47757874  0.43840940  0.72276462  1.0
  Ti  Ti4713  1  0.47757874  0.60507607  0.72276462  1.0
  Ti  Ti4714  1  0.47757874  0.77174273  0.72276462  1.0
  Ti  Ti4715  1  0.47757874  0.93840940  0.72276462  1.0
  Ti  Ti4716  1  0.56091207  0.10507607  0.72276462  1.0
  Ti  Ti4717  1  0.56091207  0.27174273  0.72276462  1.0
  Ti  Ti4718  1  0.56091207  0.43840940  0.72276462  1.0
  Ti  Ti4719  1  0.56091207  0.60507607  0.72276462  1.0
  Ti  Ti4720  1  0.56091207  0.77174273  0.72276462  1.0
  Ti  Ti4721  1  0.56091207  0.93840940  0.72276462  1.0
  Ti  Ti4722  1  0.64424541  0.10507607  0.72276462  1.0
  Ti  Ti4723  1  0.64424541  0.27174273  0.72276462  1.0
  Ti  Ti4724  1  0.64424541  0.43840940  0.72276462  1.0
  Ti  Ti4725  1  0.64424541  0.60507607  0.72276462  1.0
  Ti  Ti4726  1  0.64424541  0.77174273  0.72276462  1.0
  Ti  Ti4727  1  0.64424541  0.93840940  0.72276462  1.0
  Ti  Ti4728  1  0.72757874  0.10507607  0.72276462  1.0
  Ti  Ti4729  1  0.72757874  0.27174273  0.72276462  1.0
  Ti  Ti4730  1  0.72757874  0.43840940  0.72276462  1.0
  Ti  Ti4731  1  0.72757874  0.60507607  0.72276462  1.0
  Ti  Ti4732  1  0.72757874  0.77174273  0.72276462  1.0
  Ti  Ti4733  1  0.72757874  0.93840940  0.72276462  1.0
  Ti  Ti4734  1  0.81091207  0.10507607  0.72276462  1.0
  Ti  Ti4735  1  0.81091207  0.27174273  0.72276462  1.0
  Ti  Ti4736  1  0.81091207  0.43840940  0.72276462  1.0
  Ti  Ti4737  1  0.81091207  0.60507607  0.72276462  1.0
  Ti  Ti4738  1  0.81091207  0.77174273  0.72276462  1.0
  Ti  Ti4739  1  0.81091207  0.93840940  0.72276462  1.0
  Ti  Ti4740  1  0.89424541  0.10507607  0.72276462  1.0
  Ti  Ti4741  1  0.89424541  0.27174273  0.72276462  1.0
  Ti  Ti4742  1  0.89424541  0.43840940  0.72276462  1.0
  Ti  Ti4743  1  0.89424541  0.60507607  0.72276462  1.0
  Ti  Ti4744  1  0.89424541  0.77174273  0.72276462  1.0
  Ti  Ti4745  1  0.89424541  0.93840940  0.72276462  1.0
  Ti  Ti4746  1  0.97757874  0.10507607  0.72276462  1.0
  Ti  Ti4747  1  0.97757874  0.27174273  0.72276462  1.0
  Ti  Ti4748  1  0.97757874  0.43840940  0.72276462  1.0
  Ti  Ti4749  1  0.97757874  0.60507607  0.72276462  1.0
  Ti  Ti4750  1  0.97757874  0.77174273  0.72276462  1.0
  Ti  Ti4751  1  0.97757874  0.93840940  0.72276462  1.0
  Ti  Ti4752  1  0.00058048  0.16345409  0.66173426  1.0
  Ti  Ti4753  1  0.00058048  0.33012076  0.66173426  1.0
  Ti  Ti4754  1  0.00058048  0.49678743  0.66173426  1.0
  Ti  Ti4755  1  0.00058048  0.66345409  0.66173426  1.0
  Ti  Ti4756  1  0.00058048  0.83012076  0.66173426  1.0
  Ti  Ti4757  1  0.00058048  0.99678743  0.66173426  1.0
  Ti  Ti4758  1  0.08391381  0.16345409  0.66173426  1.0
  Ti  Ti4759  1  0.08391381  0.33012076  0.66173426  1.0
  Ti  Ti4760  1  0.08391381  0.49678743  0.66173426  1.0
  Ti  Ti4761  1  0.08391381  0.66345409  0.66173426  1.0
  Ti  Ti4762  1  0.08391381  0.83012076  0.66173426  1.0
  Ti  Ti4763  1  0.08391381  0.99678743  0.66173426  1.0
  Ti  Ti4764  1  0.16724714  0.16345409  0.66173426  1.0
  Ti  Ti4765  1  0.16724714  0.33012076  0.66173426  1.0
  Ti  Ti4766  1  0.16724714  0.49678743  0.66173426  1.0
  Ti  Ti4767  1  0.16724714  0.66345409  0.66173426  1.0
  Ti  Ti4768  1  0.16724714  0.83012076  0.66173426  1.0
  Ti  Ti4769  1  0.16724714  0.99678743  0.66173426  1.0
  Ti  Ti4770  1  0.25058048  0.16345409  0.66173426  1.0
  Ti  Ti4771  1  0.25058048  0.33012076  0.66173426  1.0
  Ti  Ti4772  1  0.25058048  0.49678743  0.66173426  1.0
  Ti  Ti4773  1  0.25058048  0.66345409  0.66173426  1.0
  Ti  Ti4774  1  0.25058048  0.83012076  0.66173426  1.0
  Ti  Ti4775  1  0.25058048  0.99678743  0.66173426  1.0
  Ti  Ti4776  1  0.33391381  0.16345409  0.66173426  1.0
  Ti  Ti4777  1  0.33391381  0.33012076  0.66173426  1.0
  Ti  Ti4778  1  0.33391381  0.49678743  0.66173426  1.0
  Ti  Ti4779  1  0.33391381  0.66345409  0.66173426  1.0
  Ti  Ti4780  1  0.33391381  0.83012076  0.66173426  1.0
  Ti  Ti4781  1  0.33391381  0.99678743  0.66173426  1.0
  Ti  Ti4782  1  0.41724714  0.16345409  0.66173426  1.0
  Ti  Ti4783  1  0.41724714  0.33012076  0.66173426  1.0
  Ti  Ti4784  1  0.41724714  0.49678743  0.66173426  1.0
  Ti  Ti4785  1  0.41724714  0.66345409  0.66173426  1.0
  Ti  Ti4786  1  0.41724714  0.83012076  0.66173426  1.0
  Ti  Ti4787  1  0.41724714  0.99678743  0.66173426  1.0
  Ti  Ti4788  1  0.50058048  0.16345409  0.66173426  1.0
  Ti  Ti4789  1  0.50058048  0.33012076  0.66173426  1.0
  Ti  Ti4790  1  0.50058048  0.49678743  0.66173426  1.0
  Ti  Ti4791  1  0.50058048  0.66345409  0.66173426  1.0
  Ti  Ti4792  1  0.50058048  0.83012076  0.66173426  1.0
  Ti  Ti4793  1  0.50058048  0.99678743  0.66173426  1.0
  Ti  Ti4794  1  0.58391381  0.16345409  0.66173426  1.0
  Ti  Ti4795  1  0.58391381  0.33012076  0.66173426  1.0
  Ti  Ti4796  1  0.58391381  0.49678743  0.66173426  1.0
  Ti  Ti4797  1  0.58391381  0.66345409  0.66173426  1.0
  Ti  Ti4798  1  0.58391381  0.83012076  0.66173426  1.0
  Ti  Ti4799  1  0.58391381  0.99678743  0.66173426  1.0
  Ti  Ti4800  1  0.66724714  0.16345409  0.66173426  1.0
  Ti  Ti4801  1  0.66724714  0.33012076  0.66173426  1.0
  Ti  Ti4802  1  0.66724714  0.49678743  0.66173426  1.0
  Ti  Ti4803  1  0.66724714  0.66345409  0.66173426  1.0
  Ti  Ti4804  1  0.66724714  0.83012076  0.66173426  1.0
  Ti  Ti4805  1  0.66724714  0.99678743  0.66173426  1.0
  Ti  Ti4806  1  0.75058048  0.16345409  0.66173426  1.0
  Ti  Ti4807  1  0.75058048  0.33012076  0.66173426  1.0
  Ti  Ti4808  1  0.75058048  0.49678743  0.66173426  1.0
  Ti  Ti4809  1  0.75058048  0.66345409  0.66173426  1.0
  Ti  Ti4810  1  0.75058048  0.83012076  0.66173426  1.0
  Ti  Ti4811  1  0.75058048  0.99678743  0.66173426  1.0
  Ti  Ti4812  1  0.83391381  0.16345409  0.66173426  1.0
  Ti  Ti4813  1  0.83391381  0.33012076  0.66173426  1.0
  Ti  Ti4814  1  0.83391381  0.49678743  0.66173426  1.0
  Ti  Ti4815  1  0.83391381  0.66345409  0.66173426  1.0
  Ti  Ti4816  1  0.83391381  0.83012076  0.66173426  1.0
  Ti  Ti4817  1  0.83391381  0.99678743  0.66173426  1.0
  Ti  Ti4818  1  0.91724714  0.16345409  0.66173426  1.0
  Ti  Ti4819  1  0.91724714  0.33012076  0.66173426  1.0
  Ti  Ti4820  1  0.91724714  0.49678743  0.66173426  1.0
  Ti  Ti4821  1  0.91724714  0.66345409  0.66173426  1.0
  Ti  Ti4822  1  0.91724714  0.83012076  0.66173426  1.0
  Ti  Ti4823  1  0.91724714  0.99678743  0.66173426  1.0
  Ti  Ti4824  1  0.06010429  0.15154933  0.73316283  1.0
  Ti  Ti4825  1  0.06010429  0.31821600  0.73316283  1.0
  Ti  Ti4826  1  0.06010429  0.48488267  0.73316283  1.0
  Ti  Ti4827  1  0.06010429  0.65154933  0.73316283  1.0
  Ti  Ti4828  1  0.06010429  0.81821600  0.73316283  1.0
  Ti  Ti4829  1  0.06010429  0.98488267  0.73316283  1.0
  Ti  Ti4830  1  0.14343762  0.15154933  0.73316283  1.0
  Ti  Ti4831  1  0.14343762  0.31821600  0.73316283  1.0
  Ti  Ti4832  1  0.14343762  0.48488267  0.73316283  1.0
  Ti  Ti4833  1  0.14343762  0.65154933  0.73316283  1.0
  Ti  Ti4834  1  0.14343762  0.81821600  0.73316283  1.0
  Ti  Ti4835  1  0.14343762  0.98488267  0.73316283  1.0
  Ti  Ti4836  1  0.22677095  0.15154933  0.73316283  1.0
  Ti  Ti4837  1  0.22677095  0.31821600  0.73316283  1.0
  Ti  Ti4838  1  0.22677095  0.48488267  0.73316283  1.0
  Ti  Ti4839  1  0.22677095  0.65154933  0.73316283  1.0
  Ti  Ti4840  1  0.22677095  0.81821600  0.73316283  1.0
  Ti  Ti4841  1  0.22677095  0.98488267  0.73316283  1.0
  Ti  Ti4842  1  0.31010429  0.15154933  0.73316283  1.0
  Ti  Ti4843  1  0.31010429  0.31821600  0.73316283  1.0
  Ti  Ti4844  1  0.31010429  0.48488267  0.73316283  1.0
  Ti  Ti4845  1  0.31010429  0.65154933  0.73316283  1.0
  Ti  Ti4846  1  0.31010429  0.81821600  0.73316283  1.0
  Ti  Ti4847  1  0.31010429  0.98488267  0.73316283  1.0
  Ti  Ti4848  1  0.39343762  0.15154933  0.73316283  1.0
  Ti  Ti4849  1  0.39343762  0.31821600  0.73316283  1.0
  Ti  Ti4850  1  0.39343762  0.48488267  0.73316283  1.0
  Ti  Ti4851  1  0.39343762  0.65154933  0.73316283  1.0
  Ti  Ti4852  1  0.39343762  0.81821600  0.73316283  1.0
  Ti  Ti4853  1  0.39343762  0.98488267  0.73316283  1.0
  Ti  Ti4854  1  0.47677095  0.15154933  0.73316283  1.0
  Ti  Ti4855  1  0.47677095  0.31821600  0.73316283  1.0
  Ti  Ti4856  1  0.47677095  0.48488267  0.73316283  1.0
  Ti  Ti4857  1  0.47677095  0.65154933  0.73316283  1.0
  Ti  Ti4858  1  0.47677095  0.81821600  0.73316283  1.0
  Ti  Ti4859  1  0.47677095  0.98488267  0.73316283  1.0
  Ti  Ti4860  1  0.56010429  0.15154933  0.73316283  1.0
  Ti  Ti4861  1  0.56010429  0.31821600  0.73316283  1.0
  Ti  Ti4862  1  0.56010429  0.48488267  0.73316283  1.0
  Ti  Ti4863  1  0.56010429  0.65154933  0.73316283  1.0
  Ti  Ti4864  1  0.56010429  0.81821600  0.73316283  1.0
  Ti  Ti4865  1  0.56010429  0.98488267  0.73316283  1.0
  Ti  Ti4866  1  0.64343762  0.15154933  0.73316283  1.0
  Ti  Ti4867  1  0.64343762  0.31821600  0.73316283  1.0
  Ti  Ti4868  1  0.64343762  0.48488267  0.73316283  1.0
  Ti  Ti4869  1  0.64343762  0.65154933  0.73316283  1.0
  Ti  Ti4870  1  0.64343762  0.81821600  0.73316283  1.0
  Ti  Ti4871  1  0.64343762  0.98488267  0.73316283  1.0
  Ti  Ti4872  1  0.72677095  0.15154933  0.73316283  1.0
  Ti  Ti4873  1  0.72677095  0.31821600  0.73316283  1.0
  Ti  Ti4874  1  0.72677095  0.48488267  0.73316283  1.0
  Ti  Ti4875  1  0.72677095  0.65154933  0.73316283  1.0
  Ti  Ti4876  1  0.72677095  0.81821600  0.73316283  1.0
  Ti  Ti4877  1  0.72677095  0.98488267  0.73316283  1.0
  Ti  Ti4878  1  0.81010429  0.15154933  0.73316283  1.0
  Ti  Ti4879  1  0.81010429  0.31821600  0.73316283  1.0
  Ti  Ti4880  1  0.81010429  0.48488267  0.73316283  1.0
  Ti  Ti4881  1  0.81010429  0.65154933  0.73316283  1.0
  Ti  Ti4882  1  0.81010429  0.81821600  0.73316283  1.0
  Ti  Ti4883  1  0.81010429  0.98488267  0.73316283  1.0
  Ti  Ti4884  1  0.89343762  0.15154933  0.73316283  1.0
  Ti  Ti4885  1  0.89343762  0.31821600  0.73316283  1.0
  Ti  Ti4886  1  0.89343762  0.48488267  0.73316283  1.0
  Ti  Ti4887  1  0.89343762  0.65154933  0.73316283  1.0
  Ti  Ti4888  1  0.89343762  0.81821600  0.73316283  1.0
  Ti  Ti4889  1  0.89343762  0.98488267  0.73316283  1.0
  Ti  Ti4890  1  0.97677095  0.15154933  0.73316283  1.0
  Ti  Ti4891  1  0.97677095  0.31821600  0.73316283  1.0
  Ti  Ti4892  1  0.97677095  0.48488267  0.73316283  1.0
  Ti  Ti4893  1  0.97677095  0.65154933  0.73316283  1.0
  Ti  Ti4894  1  0.97677095  0.81821600  0.73316283  1.0
  Ti  Ti4895  1  0.97677095  0.98488267  0.73316283  1.0
  Ti  Ti4896  1  0.04738999  0.09715473  0.64573706  1.0
  Ti  Ti4897  1  0.04738999  0.26382139  0.64573706  1.0
  Ti  Ti4898  1  0.04738999  0.43048806  0.64573706  1.0
  Ti  Ti4899  1  0.04738999  0.59715473  0.64573706  1.0
  Ti  Ti4900  1  0.04738999  0.76382139  0.64573706  1.0
  Ti  Ti4901  1  0.04738999  0.93048806  0.64573706  1.0
  Ti  Ti4902  1  0.13072332  0.09715473  0.64573706  1.0
  Ti  Ti4903  1  0.13072332  0.26382139  0.64573706  1.0
  Ti  Ti4904  1  0.13072332  0.43048806  0.64573706  1.0
  Ti  Ti4905  1  0.13072332  0.59715473  0.64573706  1.0
  Ti  Ti4906  1  0.13072332  0.76382139  0.64573706  1.0
  Ti  Ti4907  1  0.13072332  0.93048806  0.64573706  1.0
  Ti  Ti4908  1  0.21405666  0.09715473  0.64573706  1.0
  Ti  Ti4909  1  0.21405666  0.26382139  0.64573706  1.0
  Ti  Ti4910  1  0.21405666  0.43048806  0.64573706  1.0
  Ti  Ti4911  1  0.21405666  0.59715473  0.64573706  1.0
  Ti  Ti4912  1  0.21405666  0.76382139  0.64573706  1.0
  Ti  Ti4913  1  0.21405666  0.93048806  0.64573706  1.0
  Ti  Ti4914  1  0.29738999  0.09715473  0.64573706  1.0
  Ti  Ti4915  1  0.29738999  0.26382139  0.64573706  1.0
  Ti  Ti4916  1  0.29738999  0.43048806  0.64573706  1.0
  Ti  Ti4917  1  0.29738999  0.59715473  0.64573706  1.0
  Ti  Ti4918  1  0.29738999  0.76382139  0.64573706  1.0
  Ti  Ti4919  1  0.29738999  0.93048806  0.64573706  1.0
  Ti  Ti4920  1  0.38072332  0.09715473  0.64573706  1.0
  Ti  Ti4921  1  0.38072332  0.26382139  0.64573706  1.0
  Ti  Ti4922  1  0.38072332  0.43048806  0.64573706  1.0
  Ti  Ti4923  1  0.38072332  0.59715473  0.64573706  1.0
  Ti  Ti4924  1  0.38072332  0.76382139  0.64573706  1.0
  Ti  Ti4925  1  0.38072332  0.93048806  0.64573706  1.0
  Ti  Ti4926  1  0.46405666  0.09715473  0.64573706  1.0
  Ti  Ti4927  1  0.46405666  0.26382139  0.64573706  1.0
  Ti  Ti4928  1  0.46405666  0.43048806  0.64573706  1.0
  Ti  Ti4929  1  0.46405666  0.59715473  0.64573706  1.0
  Ti  Ti4930  1  0.46405666  0.76382139  0.64573706  1.0
  Ti  Ti4931  1  0.46405666  0.93048806  0.64573706  1.0
  Ti  Ti4932  1  0.54738999  0.09715473  0.64573706  1.0
  Ti  Ti4933  1  0.54738999  0.26382139  0.64573706  1.0
  Ti  Ti4934  1  0.54738999  0.43048806  0.64573706  1.0
  Ti  Ti4935  1  0.54738999  0.59715473  0.64573706  1.0
  Ti  Ti4936  1  0.54738999  0.76382139  0.64573706  1.0
  Ti  Ti4937  1  0.54738999  0.93048806  0.64573706  1.0
  Ti  Ti4938  1  0.63072332  0.09715473  0.64573706  1.0
  Ti  Ti4939  1  0.63072332  0.26382139  0.64573706  1.0
  Ti  Ti4940  1  0.63072332  0.43048806  0.64573706  1.0
  Ti  Ti4941  1  0.63072332  0.59715473  0.64573706  1.0
  Ti  Ti4942  1  0.63072332  0.76382139  0.64573706  1.0
  Ti  Ti4943  1  0.63072332  0.93048806  0.64573706  1.0
  Ti  Ti4944  1  0.71405666  0.09715473  0.64573706  1.0
  Ti  Ti4945  1  0.71405666  0.26382139  0.64573706  1.0
  Ti  Ti4946  1  0.71405666  0.43048806  0.64573706  1.0
  Ti  Ti4947  1  0.71405666  0.59715473  0.64573706  1.0
  Ti  Ti4948  1  0.71405666  0.76382139  0.64573706  1.0
  Ti  Ti4949  1  0.71405666  0.93048806  0.64573706  1.0
  Ti  Ti4950  1  0.79738999  0.09715473  0.64573706  1.0
  Ti  Ti4951  1  0.79738999  0.26382139  0.64573706  1.0
  Ti  Ti4952  1  0.79738999  0.43048806  0.64573706  1.0
  Ti  Ti4953  1  0.79738999  0.59715473  0.64573706  1.0
  Ti  Ti4954  1  0.79738999  0.76382139  0.64573706  1.0
  Ti  Ti4955  1  0.79738999  0.93048806  0.64573706  1.0
  Ti  Ti4956  1  0.88072332  0.09715473  0.64573706  1.0
  Ti  Ti4957  1  0.88072332  0.26382139  0.64573706  1.0
  Ti  Ti4958  1  0.88072332  0.43048806  0.64573706  1.0
  Ti  Ti4959  1  0.88072332  0.59715473  0.64573706  1.0
  Ti  Ti4960  1  0.88072332  0.76382139  0.64573706  1.0
  Ti  Ti4961  1  0.88072332  0.93048806  0.64573706  1.0
  Ti  Ti4962  1  0.96405666  0.09715473  0.64573706  1.0
  Ti  Ti4963  1  0.96405666  0.26382139  0.64573706  1.0
  Ti  Ti4964  1  0.96405666  0.43048806  0.64573706  1.0
  Ti  Ti4965  1  0.96405666  0.59715473  0.64573706  1.0
  Ti  Ti4966  1  0.96405666  0.76382139  0.64573706  1.0
  Ti  Ti4967  1  0.96405666  0.93048806  0.64573706  1.0
  Ti  Ti4968  1  0.02358047  0.08524996  0.71716563  1.0
  Ti  Ti4969  1  0.02358047  0.25191663  0.71716563  1.0
  Ti  Ti4970  1  0.02358047  0.41858330  0.71716563  1.0
  Ti  Ti4971  1  0.02358047  0.58524996  0.71716563  1.0
  Ti  Ti4972  1  0.02358047  0.75191663  0.71716563  1.0
  Ti  Ti4973  1  0.02358047  0.91858330  0.71716563  1.0
  Ti  Ti4974  1  0.10691380  0.08524996  0.71716563  1.0
  Ti  Ti4975  1  0.10691380  0.25191663  0.71716563  1.0
  Ti  Ti4976  1  0.10691380  0.41858330  0.71716563  1.0
  Ti  Ti4977  1  0.10691380  0.58524996  0.71716563  1.0
  Ti  Ti4978  1  0.10691380  0.75191663  0.71716563  1.0
  Ti  Ti4979  1  0.10691380  0.91858330  0.71716563  1.0
  Ti  Ti4980  1  0.19024713  0.08524996  0.71716563  1.0
  Ti  Ti4981  1  0.19024713  0.25191663  0.71716563  1.0
  Ti  Ti4982  1  0.19024713  0.41858330  0.71716563  1.0
  Ti  Ti4983  1  0.19024713  0.58524996  0.71716563  1.0
  Ti  Ti4984  1  0.19024713  0.75191663  0.71716563  1.0
  Ti  Ti4985  1  0.19024713  0.91858330  0.71716563  1.0
  Ti  Ti4986  1  0.27358047  0.08524996  0.71716563  1.0
  Ti  Ti4987  1  0.27358047  0.25191663  0.71716563  1.0
  Ti  Ti4988  1  0.27358047  0.41858330  0.71716563  1.0
  Ti  Ti4989  1  0.27358047  0.58524996  0.71716563  1.0
  Ti  Ti4990  1  0.27358047  0.75191663  0.71716563  1.0
  Ti  Ti4991  1  0.27358047  0.91858330  0.71716563  1.0
  Ti  Ti4992  1  0.35691380  0.08524996  0.71716563  1.0
  Ti  Ti4993  1  0.35691380  0.25191663  0.71716563  1.0
  Ti  Ti4994  1  0.35691380  0.41858330  0.71716563  1.0
  Ti  Ti4995  1  0.35691380  0.58524996  0.71716563  1.0
  Ti  Ti4996  1  0.35691380  0.75191663  0.71716563  1.0
  Ti  Ti4997  1  0.35691380  0.91858330  0.71716563  1.0
  Ti  Ti4998  1  0.44024713  0.08524996  0.71716563  1.0
  Ti  Ti4999  1  0.44024713  0.25191663  0.71716563  1.0
  Ti  Ti5000  1  0.44024713  0.41858330  0.71716563  1.0
  Ti  Ti5001  1  0.44024713  0.58524996  0.71716563  1.0
  Ti  Ti5002  1  0.44024713  0.75191663  0.71716563  1.0
  Ti  Ti5003  1  0.44024713  0.91858330  0.71716563  1.0
  Ti  Ti5004  1  0.52358047  0.08524996  0.71716563  1.0
  Ti  Ti5005  1  0.52358047  0.25191663  0.71716563  1.0
  Ti  Ti5006  1  0.52358047  0.41858330  0.71716563  1.0
  Ti  Ti5007  1  0.52358047  0.58524996  0.71716563  1.0
  Ti  Ti5008  1  0.52358047  0.75191663  0.71716563  1.0
  Ti  Ti5009  1  0.52358047  0.91858330  0.71716563  1.0
  Ti  Ti5010  1  0.60691380  0.08524996  0.71716563  1.0
  Ti  Ti5011  1  0.60691380  0.25191663  0.71716563  1.0
  Ti  Ti5012  1  0.60691380  0.41858330  0.71716563  1.0
  Ti  Ti5013  1  0.60691380  0.58524996  0.71716563  1.0
  Ti  Ti5014  1  0.60691380  0.75191663  0.71716563  1.0
  Ti  Ti5015  1  0.60691380  0.91858330  0.71716563  1.0
  Ti  Ti5016  1  0.69024713  0.08524996  0.71716563  1.0
  Ti  Ti5017  1  0.69024713  0.25191663  0.71716563  1.0
  Ti  Ti5018  1  0.69024713  0.41858330  0.71716563  1.0
  Ti  Ti5019  1  0.69024713  0.58524996  0.71716563  1.0
  Ti  Ti5020  1  0.69024713  0.75191663  0.71716563  1.0
  Ti  Ti5021  1  0.69024713  0.91858330  0.71716563  1.0
  Ti  Ti5022  1  0.77358047  0.08524996  0.71716563  1.0
  Ti  Ti5023  1  0.77358047  0.25191663  0.71716563  1.0
  Ti  Ti5024  1  0.77358047  0.41858330  0.71716563  1.0
  Ti  Ti5025  1  0.77358047  0.58524996  0.71716563  1.0
  Ti  Ti5026  1  0.77358047  0.75191663  0.71716563  1.0
  Ti  Ti5027  1  0.77358047  0.91858330  0.71716563  1.0
  Ti  Ti5028  1  0.85691380  0.08524996  0.71716563  1.0
  Ti  Ti5029  1  0.85691380  0.25191663  0.71716563  1.0
  Ti  Ti5030  1  0.85691380  0.41858330  0.71716563  1.0
  Ti  Ti5031  1  0.85691380  0.58524996  0.71716563  1.0
  Ti  Ti5032  1  0.85691380  0.75191663  0.71716563  1.0
  Ti  Ti5033  1  0.85691380  0.91858330  0.71716563  1.0
  Ti  Ti5034  1  0.94024713  0.08524996  0.71716563  1.0
  Ti  Ti5035  1  0.94024713  0.25191663  0.71716563  1.0
  Ti  Ti5036  1  0.94024713  0.41858330  0.71716563  1.0
  Ti  Ti5037  1  0.94024713  0.58524996  0.71716563  1.0
  Ti  Ti5038  1  0.94024713  0.75191663  0.71716563  1.0
  Ti  Ti5039  1  0.94024713  0.91858330  0.71716563  1.0
  Ti  Ti5040  1  0.03580452  0.06663002  0.67860891  1.0
  Ti  Ti5041  1  0.03580452  0.23329669  0.67860891  1.0
  Ti  Ti5042  1  0.03580452  0.39996335  0.67860891  1.0
  Ti  Ti5043  1  0.03580452  0.56663002  0.67860891  1.0
  Ti  Ti5044  1  0.03580452  0.73329669  0.67860891  1.0
  Ti  Ti5045  1  0.03580452  0.89996335  0.67860891  1.0
  Ti  Ti5046  1  0.11913786  0.06663002  0.67860891  1.0
  Ti  Ti5047  1  0.11913786  0.23329669  0.67860891  1.0
  Ti  Ti5048  1  0.11913786  0.39996335  0.67860891  1.0
  Ti  Ti5049  1  0.11913786  0.56663002  0.67860891  1.0
  Ti  Ti5050  1  0.11913786  0.73329669  0.67860891  1.0
  Ti  Ti5051  1  0.11913786  0.89996335  0.67860891  1.0
  Ti  Ti5052  1  0.20247119  0.06663002  0.67860891  1.0
  Ti  Ti5053  1  0.20247119  0.23329669  0.67860891  1.0
  Ti  Ti5054  1  0.20247119  0.39996335  0.67860891  1.0
  Ti  Ti5055  1  0.20247119  0.56663002  0.67860891  1.0
  Ti  Ti5056  1  0.20247119  0.73329669  0.67860891  1.0
  Ti  Ti5057  1  0.20247119  0.89996335  0.67860891  1.0
  Ti  Ti5058  1  0.28580452  0.06663002  0.67860891  1.0
  Ti  Ti5059  1  0.28580452  0.23329669  0.67860891  1.0
  Ti  Ti5060  1  0.28580452  0.39996335  0.67860891  1.0
  Ti  Ti5061  1  0.28580452  0.56663002  0.67860891  1.0
  Ti  Ti5062  1  0.28580452  0.73329669  0.67860891  1.0
  Ti  Ti5063  1  0.28580452  0.89996335  0.67860891  1.0
  Ti  Ti5064  1  0.36913786  0.06663002  0.67860891  1.0
  Ti  Ti5065  1  0.36913786  0.23329669  0.67860891  1.0
  Ti  Ti5066  1  0.36913786  0.39996335  0.67860891  1.0
  Ti  Ti5067  1  0.36913786  0.56663002  0.67860891  1.0
  Ti  Ti5068  1  0.36913786  0.73329669  0.67860891  1.0
  Ti  Ti5069  1  0.36913786  0.89996335  0.67860891  1.0
  Ti  Ti5070  1  0.45247119  0.06663002  0.67860891  1.0
  Ti  Ti5071  1  0.45247119  0.23329669  0.67860891  1.0
  Ti  Ti5072  1  0.45247119  0.39996335  0.67860891  1.0
  Ti  Ti5073  1  0.45247119  0.56663002  0.67860891  1.0
  Ti  Ti5074  1  0.45247119  0.73329669  0.67860891  1.0
  Ti  Ti5075  1  0.45247119  0.89996335  0.67860891  1.0
  Ti  Ti5076  1  0.53580452  0.06663002  0.67860891  1.0
  Ti  Ti5077  1  0.53580452  0.23329669  0.67860891  1.0
  Ti  Ti5078  1  0.53580452  0.39996335  0.67860891  1.0
  Ti  Ti5079  1  0.53580452  0.56663002  0.67860891  1.0
  Ti  Ti5080  1  0.53580452  0.73329669  0.67860891  1.0
  Ti  Ti5081  1  0.53580452  0.89996335  0.67860891  1.0
  Ti  Ti5082  1  0.61913786  0.06663002  0.67860891  1.0
  Ti  Ti5083  1  0.61913786  0.23329669  0.67860891  1.0
  Ti  Ti5084  1  0.61913786  0.39996335  0.67860891  1.0
  Ti  Ti5085  1  0.61913786  0.56663002  0.67860891  1.0
  Ti  Ti5086  1  0.61913786  0.73329669  0.67860891  1.0
  Ti  Ti5087  1  0.61913786  0.89996335  0.67860891  1.0
  Ti  Ti5088  1  0.70247119  0.06663002  0.67860891  1.0
  Ti  Ti5089  1  0.70247119  0.23329669  0.67860891  1.0
  Ti  Ti5090  1  0.70247119  0.39996335  0.67860891  1.0
  Ti  Ti5091  1  0.70247119  0.56663002  0.67860891  1.0
  Ti  Ti5092  1  0.70247119  0.73329669  0.67860891  1.0
  Ti  Ti5093  1  0.70247119  0.89996335  0.67860891  1.0
  Ti  Ti5094  1  0.78580452  0.06663002  0.67860891  1.0
  Ti  Ti5095  1  0.78580452  0.23329669  0.67860891  1.0
  Ti  Ti5096  1  0.78580452  0.39996335  0.67860891  1.0
  Ti  Ti5097  1  0.78580452  0.56663002  0.67860891  1.0
  Ti  Ti5098  1  0.78580452  0.73329669  0.67860891  1.0
  Ti  Ti5099  1  0.78580452  0.89996335  0.67860891  1.0
  Ti  Ti5100  1  0.86913786  0.06663002  0.67860891  1.0
  Ti  Ti5101  1  0.86913786  0.23329669  0.67860891  1.0
  Ti  Ti5102  1  0.86913786  0.39996335  0.67860891  1.0
  Ti  Ti5103  1  0.86913786  0.56663002  0.67860891  1.0
  Ti  Ti5104  1  0.86913786  0.73329669  0.67860891  1.0
  Ti  Ti5105  1  0.86913786  0.89996335  0.67860891  1.0
  Ti  Ti5106  1  0.95247119  0.06663002  0.67860891  1.0
  Ti  Ti5107  1  0.95247119  0.23329669  0.67860891  1.0
  Ti  Ti5108  1  0.95247119  0.39996335  0.67860891  1.0
  Ti  Ti5109  1  0.95247119  0.56663002  0.67860891  1.0
  Ti  Ti5110  1  0.95247119  0.73329669  0.67860891  1.0
  Ti  Ti5111  1  0.95247119  0.89996335  0.67860891  1.0
  Ti  Ti5112  1  0.01199500  0.05472526  0.75003748  1.0
  Ti  Ti5113  1  0.01199500  0.22139192  0.75003748  1.0
  Ti  Ti5114  1  0.01199500  0.38805859  0.75003748  1.0
  Ti  Ti5115  1  0.01199500  0.55472526  0.75003748  1.0
  Ti  Ti5116  1  0.01199500  0.72139192  0.75003748  1.0
  Ti  Ti5117  1  0.01199500  0.88805859  0.75003748  1.0
  Ti  Ti5118  1  0.09532833  0.05472526  0.75003748  1.0
  Ti  Ti5119  1  0.09532833  0.22139192  0.75003748  1.0
  Ti  Ti5120  1  0.09532833  0.38805859  0.75003748  1.0
  Ti  Ti5121  1  0.09532833  0.55472526  0.75003748  1.0
  Ti  Ti5122  1  0.09532833  0.72139192  0.75003748  1.0
  Ti  Ti5123  1  0.09532833  0.88805859  0.75003748  1.0
  Ti  Ti5124  1  0.17866166  0.05472526  0.75003748  1.0
  Ti  Ti5125  1  0.17866166  0.22139192  0.75003748  1.0
  Ti  Ti5126  1  0.17866166  0.38805859  0.75003748  1.0
  Ti  Ti5127  1  0.17866166  0.55472526  0.75003748  1.0
  Ti  Ti5128  1  0.17866166  0.72139192  0.75003748  1.0
  Ti  Ti5129  1  0.17866166  0.88805859  0.75003748  1.0
  Ti  Ti5130  1  0.26199500  0.05472526  0.75003748  1.0
  Ti  Ti5131  1  0.26199500  0.22139192  0.75003748  1.0
  Ti  Ti5132  1  0.26199500  0.38805859  0.75003748  1.0
  Ti  Ti5133  1  0.26199500  0.55472526  0.75003748  1.0
  Ti  Ti5134  1  0.26199500  0.72139192  0.75003748  1.0
  Ti  Ti5135  1  0.26199500  0.88805859  0.75003748  1.0
  Ti  Ti5136  1  0.34532833  0.05472526  0.75003748  1.0
  Ti  Ti5137  1  0.34532833  0.22139192  0.75003748  1.0
  Ti  Ti5138  1  0.34532833  0.38805859  0.75003748  1.0
  Ti  Ti5139  1  0.34532833  0.55472526  0.75003748  1.0
  Ti  Ti5140  1  0.34532833  0.72139192  0.75003748  1.0
  Ti  Ti5141  1  0.34532833  0.88805859  0.75003748  1.0
  Ti  Ti5142  1  0.42866166  0.05472526  0.75003748  1.0
  Ti  Ti5143  1  0.42866166  0.22139192  0.75003748  1.0
  Ti  Ti5144  1  0.42866166  0.38805859  0.75003748  1.0
  Ti  Ti5145  1  0.42866166  0.55472526  0.75003748  1.0
  Ti  Ti5146  1  0.42866166  0.72139192  0.75003748  1.0
  Ti  Ti5147  1  0.42866166  0.88805859  0.75003748  1.0
  Ti  Ti5148  1  0.51199500  0.05472526  0.75003748  1.0
  Ti  Ti5149  1  0.51199500  0.22139192  0.75003748  1.0
  Ti  Ti5150  1  0.51199500  0.38805859  0.75003748  1.0
  Ti  Ti5151  1  0.51199500  0.55472526  0.75003748  1.0
  Ti  Ti5152  1  0.51199500  0.72139192  0.75003748  1.0
  Ti  Ti5153  1  0.51199500  0.88805859  0.75003748  1.0
  Ti  Ti5154  1  0.59532833  0.05472526  0.75003748  1.0
  Ti  Ti5155  1  0.59532833  0.22139192  0.75003748  1.0
  Ti  Ti5156  1  0.59532833  0.38805859  0.75003748  1.0
  Ti  Ti5157  1  0.59532833  0.55472526  0.75003748  1.0
  Ti  Ti5158  1  0.59532833  0.72139192  0.75003748  1.0
  Ti  Ti5159  1  0.59532833  0.88805859  0.75003748  1.0
  Ti  Ti5160  1  0.67866166  0.05472526  0.75003748  1.0
  Ti  Ti5161  1  0.67866166  0.22139192  0.75003748  1.0
  Ti  Ti5162  1  0.67866166  0.38805859  0.75003748  1.0
  Ti  Ti5163  1  0.67866166  0.55472526  0.75003748  1.0
  Ti  Ti5164  1  0.67866166  0.72139192  0.75003748  1.0
  Ti  Ti5165  1  0.67866166  0.88805859  0.75003748  1.0
  Ti  Ti5166  1  0.76199500  0.05472526  0.75003748  1.0
  Ti  Ti5167  1  0.76199500  0.22139192  0.75003748  1.0
  Ti  Ti5168  1  0.76199500  0.38805859  0.75003748  1.0
  Ti  Ti5169  1  0.76199500  0.55472526  0.75003748  1.0
  Ti  Ti5170  1  0.76199500  0.72139192  0.75003748  1.0
  Ti  Ti5171  1  0.76199500  0.88805859  0.75003748  1.0
  Ti  Ti5172  1  0.84532833  0.05472526  0.75003748  1.0
  Ti  Ti5173  1  0.84532833  0.22139192  0.75003748  1.0
  Ti  Ti5174  1  0.84532833  0.38805859  0.75003748  1.0
  Ti  Ti5175  1  0.84532833  0.55472526  0.75003748  1.0
  Ti  Ti5176  1  0.84532833  0.72139192  0.75003748  1.0
  Ti  Ti5177  1  0.84532833  0.88805859  0.75003748  1.0
  Ti  Ti5178  1  0.92866166  0.05472526  0.75003748  1.0
  Ti  Ti5179  1  0.92866166  0.22139192  0.75003748  1.0
  Ti  Ti5180  1  0.92866166  0.38805859  0.75003748  1.0
  Ti  Ti5181  1  0.92866166  0.55472526  0.75003748  1.0
  Ti  Ti5182  1  0.92866166  0.72139192  0.75003748  1.0
  Ti  Ti5183  1  0.92866166  0.88805859  0.75003748  1.0
  Ti  Ti5184  1  0.03789606  0.01661223  0.66735249  1.0
  Ti  Ti5185  1  0.03789606  0.18327890  0.66735249  1.0
  Ti  Ti5186  1  0.03789606  0.34994557  0.66735249  1.0
  Ti  Ti5187  1  0.03789606  0.51661223  0.66735249  1.0
  Ti  Ti5188  1  0.03789606  0.68327890  0.66735249  1.0
  Ti  Ti5189  1  0.03789606  0.84994557  0.66735249  1.0
  Ti  Ti5190  1  0.12122939  0.01661223  0.66735249  1.0
  Ti  Ti5191  1  0.12122939  0.18327890  0.66735249  1.0
  Ti  Ti5192  1  0.12122939  0.34994557  0.66735249  1.0
  Ti  Ti5193  1  0.12122939  0.51661223  0.66735249  1.0
  Ti  Ti5194  1  0.12122939  0.68327890  0.66735249  1.0
  Ti  Ti5195  1  0.12122939  0.84994557  0.66735249  1.0
  Ti  Ti5196  1  0.20456272  0.01661223  0.66735249  1.0
  Ti  Ti5197  1  0.20456272  0.18327890  0.66735249  1.0
  Ti  Ti5198  1  0.20456272  0.34994557  0.66735249  1.0
  Ti  Ti5199  1  0.20456272  0.51661223  0.66735249  1.0
  Ti  Ti5200  1  0.20456272  0.68327890  0.66735249  1.0
  Ti  Ti5201  1  0.20456272  0.84994557  0.66735249  1.0
  Ti  Ti5202  1  0.28789606  0.01661223  0.66735249  1.0
  Ti  Ti5203  1  0.28789606  0.18327890  0.66735249  1.0
  Ti  Ti5204  1  0.28789606  0.34994557  0.66735249  1.0
  Ti  Ti5205  1  0.28789606  0.51661223  0.66735249  1.0
  Ti  Ti5206  1  0.28789606  0.68327890  0.66735249  1.0
  Ti  Ti5207  1  0.28789606  0.84994557  0.66735249  1.0
  Ti  Ti5208  1  0.37122939  0.01661223  0.66735249  1.0
  Ti  Ti5209  1  0.37122939  0.18327890  0.66735249  1.0
  Ti  Ti5210  1  0.37122939  0.34994557  0.66735249  1.0
  Ti  Ti5211  1  0.37122939  0.51661223  0.66735249  1.0
  Ti  Ti5212  1  0.37122939  0.68327890  0.66735249  1.0
  Ti  Ti5213  1  0.37122939  0.84994557  0.66735249  1.0
  Ti  Ti5214  1  0.45456272  0.01661223  0.66735249  1.0
  Ti  Ti5215  1  0.45456272  0.18327890  0.66735249  1.0
  Ti  Ti5216  1  0.45456272  0.34994557  0.66735249  1.0
  Ti  Ti5217  1  0.45456272  0.51661223  0.66735249  1.0
  Ti  Ti5218  1  0.45456272  0.68327890  0.66735249  1.0
  Ti  Ti5219  1  0.45456272  0.84994557  0.66735249  1.0
  Ti  Ti5220  1  0.53789606  0.01661223  0.66735249  1.0
  Ti  Ti5221  1  0.53789606  0.18327890  0.66735249  1.0
  Ti  Ti5222  1  0.53789606  0.34994557  0.66735249  1.0
  Ti  Ti5223  1  0.53789606  0.51661223  0.66735249  1.0
  Ti  Ti5224  1  0.53789606  0.68327890  0.66735249  1.0
  Ti  Ti5225  1  0.53789606  0.84994557  0.66735249  1.0
  Ti  Ti5226  1  0.62122939  0.01661223  0.66735249  1.0
  Ti  Ti5227  1  0.62122939  0.18327890  0.66735249  1.0
  Ti  Ti5228  1  0.62122939  0.34994557  0.66735249  1.0
  Ti  Ti5229  1  0.62122939  0.51661223  0.66735249  1.0
  Ti  Ti5230  1  0.62122939  0.68327890  0.66735249  1.0
  Ti  Ti5231  1  0.62122939  0.84994557  0.66735249  1.0
  Ti  Ti5232  1  0.70456272  0.01661223  0.66735249  1.0
  Ti  Ti5233  1  0.70456272  0.18327890  0.66735249  1.0
  Ti  Ti5234  1  0.70456272  0.34994557  0.66735249  1.0
  Ti  Ti5235  1  0.70456272  0.51661223  0.66735249  1.0
  Ti  Ti5236  1  0.70456272  0.68327890  0.66735249  1.0
  Ti  Ti5237  1  0.70456272  0.84994557  0.66735249  1.0
  Ti  Ti5238  1  0.78789606  0.01661223  0.66735249  1.0
  Ti  Ti5239  1  0.78789606  0.18327890  0.66735249  1.0
  Ti  Ti5240  1  0.78789606  0.34994557  0.66735249  1.0
  Ti  Ti5241  1  0.78789606  0.51661223  0.66735249  1.0
  Ti  Ti5242  1  0.78789606  0.68327890  0.66735249  1.0
  Ti  Ti5243  1  0.78789606  0.84994557  0.66735249  1.0
  Ti  Ti5244  1  0.87122939  0.01661223  0.66735249  1.0
  Ti  Ti5245  1  0.87122939  0.18327890  0.66735249  1.0
  Ti  Ti5246  1  0.87122939  0.34994557  0.66735249  1.0
  Ti  Ti5247  1  0.87122939  0.51661223  0.66735249  1.0
  Ti  Ti5248  1  0.87122939  0.68327890  0.66735249  1.0
  Ti  Ti5249  1  0.87122939  0.84994557  0.66735249  1.0
  Ti  Ti5250  1  0.95456272  0.01661223  0.66735249  1.0
  Ti  Ti5251  1  0.95456272  0.18327890  0.66735249  1.0
  Ti  Ti5252  1  0.95456272  0.34994557  0.66735249  1.0
  Ti  Ti5253  1  0.95456272  0.51661223  0.66735249  1.0
  Ti  Ti5254  1  0.95456272  0.68327890  0.66735249  1.0
  Ti  Ti5255  1  0.95456272  0.84994557  0.66735249  1.0
  Ti  Ti5256  1  0.01408653  0.00470747  0.73878107  1.0
  Ti  Ti5257  1  0.01408653  0.17137414  0.73878107  1.0
  Ti  Ti5258  1  0.01408653  0.33804081  0.73878107  1.0
  Ti  Ti5259  1  0.01408653  0.50470747  0.73878107  1.0
  Ti  Ti5260  1  0.01408653  0.67137414  0.73878107  1.0
  Ti  Ti5261  1  0.01408653  0.83804081  0.73878107  1.0
  Ti  Ti5262  1  0.09741987  0.00470747  0.73878107  1.0
  Ti  Ti5263  1  0.09741987  0.17137414  0.73878107  1.0
  Ti  Ti5264  1  0.09741987  0.33804081  0.73878107  1.0
  Ti  Ti5265  1  0.09741987  0.50470747  0.73878107  1.0
  Ti  Ti5266  1  0.09741987  0.67137414  0.73878107  1.0
  Ti  Ti5267  1  0.09741987  0.83804081  0.73878107  1.0
  Ti  Ti5268  1  0.18075320  0.00470747  0.73878107  1.0
  Ti  Ti5269  1  0.18075320  0.17137414  0.73878107  1.0
  Ti  Ti5270  1  0.18075320  0.33804081  0.73878107  1.0
  Ti  Ti5271  1  0.18075320  0.50470747  0.73878107  1.0
  Ti  Ti5272  1  0.18075320  0.67137414  0.73878107  1.0
  Ti  Ti5273  1  0.18075320  0.83804081  0.73878107  1.0
  Ti  Ti5274  1  0.26408653  0.00470747  0.73878107  1.0
  Ti  Ti5275  1  0.26408653  0.17137414  0.73878107  1.0
  Ti  Ti5276  1  0.26408653  0.33804081  0.73878107  1.0
  Ti  Ti5277  1  0.26408653  0.50470747  0.73878107  1.0
  Ti  Ti5278  1  0.26408653  0.67137414  0.73878107  1.0
  Ti  Ti5279  1  0.26408653  0.83804081  0.73878107  1.0
  Ti  Ti5280  1  0.34741987  0.00470747  0.73878107  1.0
  Ti  Ti5281  1  0.34741987  0.17137414  0.73878107  1.0
  Ti  Ti5282  1  0.34741987  0.33804081  0.73878107  1.0
  Ti  Ti5283  1  0.34741987  0.50470747  0.73878107  1.0
  Ti  Ti5284  1  0.34741987  0.67137414  0.73878107  1.0
  Ti  Ti5285  1  0.34741987  0.83804081  0.73878107  1.0
  Ti  Ti5286  1  0.43075320  0.00470747  0.73878107  1.0
  Ti  Ti5287  1  0.43075320  0.17137414  0.73878107  1.0
  Ti  Ti5288  1  0.43075320  0.33804081  0.73878107  1.0
  Ti  Ti5289  1  0.43075320  0.50470747  0.73878107  1.0
  Ti  Ti5290  1  0.43075320  0.67137414  0.73878107  1.0
  Ti  Ti5291  1  0.43075320  0.83804081  0.73878107  1.0
  Ti  Ti5292  1  0.51408653  0.00470747  0.73878107  1.0
  Ti  Ti5293  1  0.51408653  0.17137414  0.73878107  1.0
  Ti  Ti5294  1  0.51408653  0.33804081  0.73878107  1.0
  Ti  Ti5295  1  0.51408653  0.50470747  0.73878107  1.0
  Ti  Ti5296  1  0.51408653  0.67137414  0.73878107  1.0
  Ti  Ti5297  1  0.51408653  0.83804081  0.73878107  1.0
  Ti  Ti5298  1  0.59741987  0.00470747  0.73878107  1.0
  Ti  Ti5299  1  0.59741987  0.17137414  0.73878107  1.0
  Ti  Ti5300  1  0.59741987  0.33804081  0.73878107  1.0
  Ti  Ti5301  1  0.59741987  0.50470747  0.73878107  1.0
  Ti  Ti5302  1  0.59741987  0.67137414  0.73878107  1.0
  Ti  Ti5303  1  0.59741987  0.83804081  0.73878107  1.0
  Ti  Ti5304  1  0.68075320  0.00470747  0.73878107  1.0
  Ti  Ti5305  1  0.68075320  0.17137414  0.73878107  1.0
  Ti  Ti5306  1  0.68075320  0.33804081  0.73878107  1.0
  Ti  Ti5307  1  0.68075320  0.50470747  0.73878107  1.0
  Ti  Ti5308  1  0.68075320  0.67137414  0.73878107  1.0
  Ti  Ti5309  1  0.68075320  0.83804081  0.73878107  1.0
  Ti  Ti5310  1  0.76408653  0.00470747  0.73878107  1.0
  Ti  Ti5311  1  0.76408653  0.17137414  0.73878107  1.0
  Ti  Ti5312  1  0.76408653  0.33804081  0.73878107  1.0
  Ti  Ti5313  1  0.76408653  0.50470747  0.73878107  1.0
  Ti  Ti5314  1  0.76408653  0.67137414  0.73878107  1.0
  Ti  Ti5315  1  0.76408653  0.83804081  0.73878107  1.0
  Ti  Ti5316  1  0.84741987  0.00470747  0.73878107  1.0
  Ti  Ti5317  1  0.84741987  0.17137414  0.73878107  1.0
  Ti  Ti5318  1  0.84741987  0.33804081  0.73878107  1.0
  Ti  Ti5319  1  0.84741987  0.50470747  0.73878107  1.0
  Ti  Ti5320  1  0.84741987  0.67137414  0.73878107  1.0
  Ti  Ti5321  1  0.84741987  0.83804081  0.73878107  1.0
  Ti  Ti5322  1  0.93075320  0.00470747  0.73878107  1.0
  Ti  Ti5323  1  0.93075320  0.17137414  0.73878107  1.0
  Ti  Ti5324  1  0.93075320  0.33804081  0.73878107  1.0
  Ti  Ti5325  1  0.93075320  0.50470747  0.73878107  1.0
  Ti  Ti5326  1  0.93075320  0.67137414  0.73878107  1.0
  Ti  Ti5327  1  0.93075320  0.83804081  0.73878107  1.0
  Ti  Ti5328  1  0.04858837  0.12233478  0.76366925  1.0
  Ti  Ti5329  1  0.04858837  0.28900145  0.76366925  1.0
  Ti  Ti5330  1  0.04858837  0.45566811  0.76366925  1.0
  Ti  Ti5331  1  0.04858837  0.62233478  0.76366925  1.0
  Ti  Ti5332  1  0.04858837  0.78900145  0.76366925  1.0
  Ti  Ti5333  1  0.04858837  0.95566811  0.76366925  1.0
  Ti  Ti5334  1  0.13192170  0.12233478  0.76366925  1.0
  Ti  Ti5335  1  0.13192170  0.28900145  0.76366925  1.0
  Ti  Ti5336  1  0.13192170  0.45566811  0.76366925  1.0
  Ti  Ti5337  1  0.13192170  0.62233478  0.76366925  1.0
  Ti  Ti5338  1  0.13192170  0.78900145  0.76366925  1.0
  Ti  Ti5339  1  0.13192170  0.95566811  0.76366925  1.0
  Ti  Ti5340  1  0.21525503  0.12233478  0.76366925  1.0
  Ti  Ti5341  1  0.21525503  0.28900145  0.76366925  1.0
  Ti  Ti5342  1  0.21525503  0.45566811  0.76366925  1.0
  Ti  Ti5343  1  0.21525503  0.62233478  0.76366925  1.0
  Ti  Ti5344  1  0.21525503  0.78900145  0.76366925  1.0
  Ti  Ti5345  1  0.21525503  0.95566811  0.76366925  1.0
  Ti  Ti5346  1  0.29858837  0.12233478  0.76366925  1.0
  Ti  Ti5347  1  0.29858837  0.28900145  0.76366925  1.0
  Ti  Ti5348  1  0.29858837  0.45566811  0.76366925  1.0
  Ti  Ti5349  1  0.29858837  0.62233478  0.76366925  1.0
  Ti  Ti5350  1  0.29858837  0.78900145  0.76366925  1.0
  Ti  Ti5351  1  0.29858837  0.95566811  0.76366925  1.0
  Ti  Ti5352  1  0.38192170  0.12233478  0.76366925  1.0
  Ti  Ti5353  1  0.38192170  0.28900145  0.76366925  1.0
  Ti  Ti5354  1  0.38192170  0.45566811  0.76366925  1.0
  Ti  Ti5355  1  0.38192170  0.62233478  0.76366925  1.0
  Ti  Ti5356  1  0.38192170  0.78900145  0.76366925  1.0
  Ti  Ti5357  1  0.38192170  0.95566811  0.76366925  1.0
  Ti  Ti5358  1  0.46525503  0.12233478  0.76366925  1.0
  Ti  Ti5359  1  0.46525503  0.28900145  0.76366925  1.0
  Ti  Ti5360  1  0.46525503  0.45566811  0.76366925  1.0
  Ti  Ti5361  1  0.46525503  0.62233478  0.76366925  1.0
  Ti  Ti5362  1  0.46525503  0.78900145  0.76366925  1.0
  Ti  Ti5363  1  0.46525503  0.95566811  0.76366925  1.0
  Ti  Ti5364  1  0.54858837  0.12233478  0.76366925  1.0
  Ti  Ti5365  1  0.54858837  0.28900145  0.76366925  1.0
  Ti  Ti5366  1  0.54858837  0.45566811  0.76366925  1.0
  Ti  Ti5367  1  0.54858837  0.62233478  0.76366925  1.0
  Ti  Ti5368  1  0.54858837  0.78900145  0.76366925  1.0
  Ti  Ti5369  1  0.54858837  0.95566811  0.76366925  1.0
  Ti  Ti5370  1  0.63192170  0.12233478  0.76366925  1.0
  Ti  Ti5371  1  0.63192170  0.28900145  0.76366925  1.0
  Ti  Ti5372  1  0.63192170  0.45566811  0.76366925  1.0
  Ti  Ti5373  1  0.63192170  0.62233478  0.76366925  1.0
  Ti  Ti5374  1  0.63192170  0.78900145  0.76366925  1.0
  Ti  Ti5375  1  0.63192170  0.95566811  0.76366925  1.0
  Ti  Ti5376  1  0.71525503  0.12233478  0.76366925  1.0
  Ti  Ti5377  1  0.71525503  0.28900145  0.76366925  1.0
  Ti  Ti5378  1  0.71525503  0.45566811  0.76366925  1.0
  Ti  Ti5379  1  0.71525503  0.62233478  0.76366925  1.0
  Ti  Ti5380  1  0.71525503  0.78900145  0.76366925  1.0
  Ti  Ti5381  1  0.71525503  0.95566811  0.76366925  1.0
  Ti  Ti5382  1  0.79858837  0.12233478  0.76366925  1.0
  Ti  Ti5383  1  0.79858837  0.28900145  0.76366925  1.0
  Ti  Ti5384  1  0.79858837  0.45566811  0.76366925  1.0
  Ti  Ti5385  1  0.79858837  0.62233478  0.76366925  1.0
  Ti  Ti5386  1  0.79858837  0.78900145  0.76366925  1.0
  Ti  Ti5387  1  0.79858837  0.95566811  0.76366925  1.0
  Ti  Ti5388  1  0.88192170  0.12233478  0.76366925  1.0
  Ti  Ti5389  1  0.88192170  0.28900145  0.76366925  1.0
  Ti  Ti5390  1  0.88192170  0.45566811  0.76366925  1.0
  Ti  Ti5391  1  0.88192170  0.62233478  0.76366925  1.0
  Ti  Ti5392  1  0.88192170  0.78900145  0.76366925  1.0
  Ti  Ti5393  1  0.88192170  0.95566811  0.76366925  1.0
  Ti  Ti5394  1  0.96525503  0.12233478  0.76366925  1.0
  Ti  Ti5395  1  0.96525503  0.28900145  0.76366925  1.0
  Ti  Ti5396  1  0.96525503  0.45566811  0.76366925  1.0
  Ti  Ti5397  1  0.96525503  0.62233478  0.76366925  1.0
  Ti  Ti5398  1  0.96525503  0.78900145  0.76366925  1.0
  Ti  Ti5399  1  0.96525503  0.95566811  0.76366925  1.0
  Ti  Ti5400  1  0.07239789  0.13423954  0.69224068  1.0
  Ti  Ti5401  1  0.07239789  0.30090621  0.69224068  1.0
  Ti  Ti5402  1  0.07239789  0.46757287  0.69224068  1.0
  Ti  Ti5403  1  0.07239789  0.63423954  0.69224068  1.0
  Ti  Ti5404  1  0.07239789  0.80090621  0.69224068  1.0
  Ti  Ti5405  1  0.07239789  0.96757287  0.69224068  1.0
  Ti  Ti5406  1  0.15573122  0.13423954  0.69224068  1.0
  Ti  Ti5407  1  0.15573122  0.30090621  0.69224068  1.0
  Ti  Ti5408  1  0.15573122  0.46757287  0.69224068  1.0
  Ti  Ti5409  1  0.15573122  0.63423954  0.69224068  1.0
  Ti  Ti5410  1  0.15573122  0.80090621  0.69224068  1.0
  Ti  Ti5411  1  0.15573122  0.96757287  0.69224068  1.0
  Ti  Ti5412  1  0.23906456  0.13423954  0.69224068  1.0
  Ti  Ti5413  1  0.23906456  0.30090621  0.69224068  1.0
  Ti  Ti5414  1  0.23906456  0.46757287  0.69224068  1.0
  Ti  Ti5415  1  0.23906456  0.63423954  0.69224068  1.0
  Ti  Ti5416  1  0.23906456  0.80090621  0.69224068  1.0
  Ti  Ti5417  1  0.23906456  0.96757287  0.69224068  1.0
  Ti  Ti5418  1  0.32239789  0.13423954  0.69224068  1.0
  Ti  Ti5419  1  0.32239789  0.30090621  0.69224068  1.0
  Ti  Ti5420  1  0.32239789  0.46757287  0.69224068  1.0
  Ti  Ti5421  1  0.32239789  0.63423954  0.69224068  1.0
  Ti  Ti5422  1  0.32239789  0.80090621  0.69224068  1.0
  Ti  Ti5423  1  0.32239789  0.96757287  0.69224068  1.0
  Ti  Ti5424  1  0.40573122  0.13423954  0.69224068  1.0
  Ti  Ti5425  1  0.40573122  0.30090621  0.69224068  1.0
  Ti  Ti5426  1  0.40573122  0.46757287  0.69224068  1.0
  Ti  Ti5427  1  0.40573122  0.63423954  0.69224068  1.0
  Ti  Ti5428  1  0.40573122  0.80090621  0.69224068  1.0
  Ti  Ti5429  1  0.40573122  0.96757287  0.69224068  1.0
  Ti  Ti5430  1  0.48906456  0.13423954  0.69224068  1.0
  Ti  Ti5431  1  0.48906456  0.30090621  0.69224068  1.0
  Ti  Ti5432  1  0.48906456  0.46757287  0.69224068  1.0
  Ti  Ti5433  1  0.48906456  0.63423954  0.69224068  1.0
  Ti  Ti5434  1  0.48906456  0.80090621  0.69224068  1.0
  Ti  Ti5435  1  0.48906456  0.96757287  0.69224068  1.0
  Ti  Ti5436  1  0.57239789  0.13423954  0.69224068  1.0
  Ti  Ti5437  1  0.57239789  0.30090621  0.69224068  1.0
  Ti  Ti5438  1  0.57239789  0.46757287  0.69224068  1.0
  Ti  Ti5439  1  0.57239789  0.63423954  0.69224068  1.0
  Ti  Ti5440  1  0.57239789  0.80090621  0.69224068  1.0
  Ti  Ti5441  1  0.57239789  0.96757287  0.69224068  1.0
  Ti  Ti5442  1  0.65573122  0.13423954  0.69224068  1.0
  Ti  Ti5443  1  0.65573122  0.30090621  0.69224068  1.0
  Ti  Ti5444  1  0.65573122  0.46757287  0.69224068  1.0
  Ti  Ti5445  1  0.65573122  0.63423954  0.69224068  1.0
  Ti  Ti5446  1  0.65573122  0.80090621  0.69224068  1.0
  Ti  Ti5447  1  0.65573122  0.96757287  0.69224068  1.0
  Ti  Ti5448  1  0.73906456  0.13423954  0.69224068  1.0
  Ti  Ti5449  1  0.73906456  0.30090621  0.69224068  1.0
  Ti  Ti5450  1  0.73906456  0.46757287  0.69224068  1.0
  Ti  Ti5451  1  0.73906456  0.63423954  0.69224068  1.0
  Ti  Ti5452  1  0.73906456  0.80090621  0.69224068  1.0
  Ti  Ti5453  1  0.73906456  0.96757287  0.69224068  1.0
  Ti  Ti5454  1  0.82239789  0.13423954  0.69224068  1.0
  Ti  Ti5455  1  0.82239789  0.30090621  0.69224068  1.0
  Ti  Ti5456  1  0.82239789  0.46757287  0.69224068  1.0
  Ti  Ti5457  1  0.82239789  0.63423954  0.69224068  1.0
  Ti  Ti5458  1  0.82239789  0.80090621  0.69224068  1.0
  Ti  Ti5459  1  0.82239789  0.96757287  0.69224068  1.0
  Ti  Ti5460  1  0.90573122  0.13423954  0.69224068  1.0
  Ti  Ti5461  1  0.90573122  0.30090621  0.69224068  1.0
  Ti  Ti5462  1  0.90573122  0.46757287  0.69224068  1.0
  Ti  Ti5463  1  0.90573122  0.63423954  0.69224068  1.0
  Ti  Ti5464  1  0.90573122  0.80090621  0.69224068  1.0
  Ti  Ti5465  1  0.90573122  0.96757287  0.69224068  1.0
  Ti  Ti5466  1  0.98906456  0.13423954  0.69224068  1.0
  Ti  Ti5467  1  0.98906456  0.30090621  0.69224068  1.0
  Ti  Ti5468  1  0.98906456  0.46757287  0.69224068  1.0
  Ti  Ti5469  1  0.98906456  0.63423954  0.69224068  1.0
  Ti  Ti5470  1  0.98906456  0.80090621  0.69224068  1.0
  Ti  Ti5471  1  0.98906456  0.96757287  0.69224068  1.0
  Ti  Ti5472  1  0.04159894  0.04691912  0.78306228  1.0
  Ti  Ti5473  1  0.04159894  0.21358579  0.78306228  1.0
  Ti  Ti5474  1  0.04159894  0.38025246  0.78306228  1.0
  Ti  Ti5475  1  0.04159894  0.54691912  0.78306228  1.0
  Ti  Ti5476  1  0.04159894  0.71358579  0.78306228  1.0
  Ti  Ti5477  1  0.04159894  0.88025246  0.78306228  1.0
  Ti  Ti5478  1  0.12493227  0.04691912  0.78306228  1.0
  Ti  Ti5479  1  0.12493227  0.21358579  0.78306228  1.0
  Ti  Ti5480  1  0.12493227  0.38025246  0.78306228  1.0
  Ti  Ti5481  1  0.12493227  0.54691912  0.78306228  1.0
  Ti  Ti5482  1  0.12493227  0.71358579  0.78306228  1.0
  Ti  Ti5483  1  0.12493227  0.88025246  0.78306228  1.0
  Ti  Ti5484  1  0.20826561  0.04691912  0.78306228  1.0
  Ti  Ti5485  1  0.20826561  0.21358579  0.78306228  1.0
  Ti  Ti5486  1  0.20826561  0.38025246  0.78306228  1.0
  Ti  Ti5487  1  0.20826561  0.54691912  0.78306228  1.0
  Ti  Ti5488  1  0.20826561  0.71358579  0.78306228  1.0
  Ti  Ti5489  1  0.20826561  0.88025246  0.78306228  1.0
  Ti  Ti5490  1  0.29159894  0.04691912  0.78306228  1.0
  Ti  Ti5491  1  0.29159894  0.21358579  0.78306228  1.0
  Ti  Ti5492  1  0.29159894  0.38025246  0.78306228  1.0
  Ti  Ti5493  1  0.29159894  0.54691912  0.78306228  1.0
  Ti  Ti5494  1  0.29159894  0.71358579  0.78306228  1.0
  Ti  Ti5495  1  0.29159894  0.88025246  0.78306228  1.0
  Ti  Ti5496  1  0.37493227  0.04691912  0.78306228  1.0
  Ti  Ti5497  1  0.37493227  0.21358579  0.78306228  1.0
  Ti  Ti5498  1  0.37493227  0.38025246  0.78306228  1.0
  Ti  Ti5499  1  0.37493227  0.54691912  0.78306228  1.0
  Ti  Ti5500  1  0.37493227  0.71358579  0.78306228  1.0
  Ti  Ti5501  1  0.37493227  0.88025246  0.78306228  1.0
  Ti  Ti5502  1  0.45826561  0.04691912  0.78306228  1.0
  Ti  Ti5503  1  0.45826561  0.21358579  0.78306228  1.0
  Ti  Ti5504  1  0.45826561  0.38025246  0.78306228  1.0
  Ti  Ti5505  1  0.45826561  0.54691912  0.78306228  1.0
  Ti  Ti5506  1  0.45826561  0.71358579  0.78306228  1.0
  Ti  Ti5507  1  0.45826561  0.88025246  0.78306228  1.0
  Ti  Ti5508  1  0.54159894  0.04691912  0.78306228  1.0
  Ti  Ti5509  1  0.54159894  0.21358579  0.78306228  1.0
  Ti  Ti5510  1  0.54159894  0.38025246  0.78306228  1.0
  Ti  Ti5511  1  0.54159894  0.54691912  0.78306228  1.0
  Ti  Ti5512  1  0.54159894  0.71358579  0.78306228  1.0
  Ti  Ti5513  1  0.54159894  0.88025246  0.78306228  1.0
  Ti  Ti5514  1  0.62493227  0.04691912  0.78306228  1.0
  Ti  Ti5515  1  0.62493227  0.21358579  0.78306228  1.0
  Ti  Ti5516  1  0.62493227  0.38025246  0.78306228  1.0
  Ti  Ti5517  1  0.62493227  0.54691912  0.78306228  1.0
  Ti  Ti5518  1  0.62493227  0.71358579  0.78306228  1.0
  Ti  Ti5519  1  0.62493227  0.88025246  0.78306228  1.0
  Ti  Ti5520  1  0.70826561  0.04691912  0.78306228  1.0
  Ti  Ti5521  1  0.70826561  0.21358579  0.78306228  1.0
  Ti  Ti5522  1  0.70826561  0.38025246  0.78306228  1.0
  Ti  Ti5523  1  0.70826561  0.54691912  0.78306228  1.0
  Ti  Ti5524  1  0.70826561  0.71358579  0.78306228  1.0
  Ti  Ti5525  1  0.70826561  0.88025246  0.78306228  1.0
  Ti  Ti5526  1  0.79159894  0.04691912  0.78306228  1.0
  Ti  Ti5527  1  0.79159894  0.21358579  0.78306228  1.0
  Ti  Ti5528  1  0.79159894  0.38025246  0.78306228  1.0
  Ti  Ti5529  1  0.79159894  0.54691912  0.78306228  1.0
  Ti  Ti5530  1  0.79159894  0.71358579  0.78306228  1.0
  Ti  Ti5531  1  0.79159894  0.88025246  0.78306228  1.0
  Ti  Ti5532  1  0.87493227  0.04691912  0.78306228  1.0
  Ti  Ti5533  1  0.87493227  0.21358579  0.78306228  1.0
  Ti  Ti5534  1  0.87493227  0.38025246  0.78306228  1.0
  Ti  Ti5535  1  0.87493227  0.54691912  0.78306228  1.0
  Ti  Ti5536  1  0.87493227  0.71358579  0.78306228  1.0
  Ti  Ti5537  1  0.87493227  0.88025246  0.78306228  1.0
  Ti  Ti5538  1  0.95826561  0.04691912  0.78306228  1.0
  Ti  Ti5539  1  0.95826561  0.21358579  0.78306228  1.0
  Ti  Ti5540  1  0.95826561  0.38025246  0.78306228  1.0
  Ti  Ti5541  1  0.95826561  0.54691912  0.78306228  1.0
  Ti  Ti5542  1  0.95826561  0.71358579  0.78306228  1.0
  Ti  Ti5543  1  0.95826561  0.88025246  0.78306228  1.0
  Ti  Ti5544  1  0.06540846  0.05882389  0.71163371  1.0
  Ti  Ti5545  1  0.06540846  0.22549055  0.71163371  1.0
  Ti  Ti5546  1  0.06540846  0.39215722  0.71163371  1.0
  Ti  Ti5547  1  0.06540846  0.55882389  0.71163371  1.0
  Ti  Ti5548  1  0.06540846  0.72549055  0.71163371  1.0
  Ti  Ti5549  1  0.06540846  0.89215722  0.71163371  1.0
  Ti  Ti5550  1  0.14874180  0.05882389  0.71163371  1.0
  Ti  Ti5551  1  0.14874180  0.22549055  0.71163371  1.0
  Ti  Ti5552  1  0.14874180  0.39215722  0.71163371  1.0
  Ti  Ti5553  1  0.14874180  0.55882389  0.71163371  1.0
  Ti  Ti5554  1  0.14874180  0.72549055  0.71163371  1.0
  Ti  Ti5555  1  0.14874180  0.89215722  0.71163371  1.0
  Ti  Ti5556  1  0.23207513  0.05882389  0.71163371  1.0
  Ti  Ti5557  1  0.23207513  0.22549055  0.71163371  1.0
  Ti  Ti5558  1  0.23207513  0.39215722  0.71163371  1.0
  Ti  Ti5559  1  0.23207513  0.55882389  0.71163371  1.0
  Ti  Ti5560  1  0.23207513  0.72549055  0.71163371  1.0
  Ti  Ti5561  1  0.23207513  0.89215722  0.71163371  1.0
  Ti  Ti5562  1  0.31540846  0.05882389  0.71163371  1.0
  Ti  Ti5563  1  0.31540846  0.22549055  0.71163371  1.0
  Ti  Ti5564  1  0.31540846  0.39215722  0.71163371  1.0
  Ti  Ti5565  1  0.31540846  0.55882389  0.71163371  1.0
  Ti  Ti5566  1  0.31540846  0.72549055  0.71163371  1.0
  Ti  Ti5567  1  0.31540846  0.89215722  0.71163371  1.0
  Ti  Ti5568  1  0.39874180  0.05882389  0.71163371  1.0
  Ti  Ti5569  1  0.39874180  0.22549055  0.71163371  1.0
  Ti  Ti5570  1  0.39874180  0.39215722  0.71163371  1.0
  Ti  Ti5571  1  0.39874180  0.55882389  0.71163371  1.0
  Ti  Ti5572  1  0.39874180  0.72549055  0.71163371  1.0
  Ti  Ti5573  1  0.39874180  0.89215722  0.71163371  1.0
  Ti  Ti5574  1  0.48207513  0.05882389  0.71163371  1.0
  Ti  Ti5575  1  0.48207513  0.22549055  0.71163371  1.0
  Ti  Ti5576  1  0.48207513  0.39215722  0.71163371  1.0
  Ti  Ti5577  1  0.48207513  0.55882389  0.71163371  1.0
  Ti  Ti5578  1  0.48207513  0.72549055  0.71163371  1.0
  Ti  Ti5579  1  0.48207513  0.89215722  0.71163371  1.0
  Ti  Ti5580  1  0.56540846  0.05882389  0.71163371  1.0
  Ti  Ti5581  1  0.56540846  0.22549055  0.71163371  1.0
  Ti  Ti5582  1  0.56540846  0.39215722  0.71163371  1.0
  Ti  Ti5583  1  0.56540846  0.55882389  0.71163371  1.0
  Ti  Ti5584  1  0.56540846  0.72549055  0.71163371  1.0
  Ti  Ti5585  1  0.56540846  0.89215722  0.71163371  1.0
  Ti  Ti5586  1  0.64874180  0.05882389  0.71163371  1.0
  Ti  Ti5587  1  0.64874180  0.22549055  0.71163371  1.0
  Ti  Ti5588  1  0.64874180  0.39215722  0.71163371  1.0
  Ti  Ti5589  1  0.64874180  0.55882389  0.71163371  1.0
  Ti  Ti5590  1  0.64874180  0.72549055  0.71163371  1.0
  Ti  Ti5591  1  0.64874180  0.89215722  0.71163371  1.0
  Ti  Ti5592  1  0.73207513  0.05882389  0.71163371  1.0
  Ti  Ti5593  1  0.73207513  0.22549055  0.71163371  1.0
  Ti  Ti5594  1  0.73207513  0.39215722  0.71163371  1.0
  Ti  Ti5595  1  0.73207513  0.55882389  0.71163371  1.0
  Ti  Ti5596  1  0.73207513  0.72549055  0.71163371  1.0
  Ti  Ti5597  1  0.73207513  0.89215722  0.71163371  1.0
  Ti  Ti5598  1  0.81540846  0.05882389  0.71163371  1.0
  Ti  Ti5599  1  0.81540846  0.22549055  0.71163371  1.0
  Ti  Ti5600  1  0.81540846  0.39215722  0.71163371  1.0
  Ti  Ti5601  1  0.81540846  0.55882389  0.71163371  1.0
  Ti  Ti5602  1  0.81540846  0.72549055  0.71163371  1.0
  Ti  Ti5603  1  0.81540846  0.89215722  0.71163371  1.0
  Ti  Ti5604  1  0.89874180  0.05882389  0.71163371  1.0
  Ti  Ti5605  1  0.89874180  0.22549055  0.71163371  1.0
  Ti  Ti5606  1  0.89874180  0.39215722  0.71163371  1.0
  Ti  Ti5607  1  0.89874180  0.55882389  0.71163371  1.0
  Ti  Ti5608  1  0.89874180  0.72549055  0.71163371  1.0
  Ti  Ti5609  1  0.89874180  0.89215722  0.71163371  1.0
  Ti  Ti5610  1  0.98207513  0.05882389  0.71163371  1.0
  Ti  Ti5611  1  0.98207513  0.22549055  0.71163371  1.0
  Ti  Ti5612  1  0.98207513  0.39215722  0.71163371  1.0
  Ti  Ti5613  1  0.98207513  0.55882389  0.71163371  1.0
  Ti  Ti5614  1  0.98207513  0.72549055  0.71163371  1.0
  Ti  Ti5615  1  0.98207513  0.89215722  0.71163371  1.0
  Ti  Ti5616  1  0.00506421  0.14605114  0.76736355  1.0
  Ti  Ti5617  1  0.00506421  0.31271780  0.76736355  1.0
  Ti  Ti5618  1  0.00506421  0.47938447  0.76736355  1.0
  Ti  Ti5619  1  0.00506421  0.64605114  0.76736355  1.0
  Ti  Ti5620  1  0.00506421  0.81271780  0.76736355  1.0
  Ti  Ti5621  1  0.00506421  0.97938447  0.76736355  1.0
  Ti  Ti5622  1  0.08839755  0.14605114  0.76736355  1.0
  Ti  Ti5623  1  0.08839755  0.31271780  0.76736355  1.0
  Ti  Ti5624  1  0.08839755  0.47938447  0.76736355  1.0
  Ti  Ti5625  1  0.08839755  0.64605114  0.76736355  1.0
  Ti  Ti5626  1  0.08839755  0.81271780  0.76736355  1.0
  Ti  Ti5627  1  0.08839755  0.97938447  0.76736355  1.0
  Ti  Ti5628  1  0.17173088  0.14605114  0.76736355  1.0
  Ti  Ti5629  1  0.17173088  0.31271780  0.76736355  1.0
  Ti  Ti5630  1  0.17173088  0.47938447  0.76736355  1.0
  Ti  Ti5631  1  0.17173088  0.64605114  0.76736355  1.0
  Ti  Ti5632  1  0.17173088  0.81271780  0.76736355  1.0
  Ti  Ti5633  1  0.17173088  0.97938447  0.76736355  1.0
  Ti  Ti5634  1  0.25506421  0.14605114  0.76736355  1.0
  Ti  Ti5635  1  0.25506421  0.31271780  0.76736355  1.0
  Ti  Ti5636  1  0.25506421  0.47938447  0.76736355  1.0
  Ti  Ti5637  1  0.25506421  0.64605114  0.76736355  1.0
  Ti  Ti5638  1  0.25506421  0.81271780  0.76736355  1.0
  Ti  Ti5639  1  0.25506421  0.97938447  0.76736355  1.0
  Ti  Ti5640  1  0.33839755  0.14605114  0.76736355  1.0
  Ti  Ti5641  1  0.33839755  0.31271780  0.76736355  1.0
  Ti  Ti5642  1  0.33839755  0.47938447  0.76736355  1.0
  Ti  Ti5643  1  0.33839755  0.64605114  0.76736355  1.0
  Ti  Ti5644  1  0.33839755  0.81271780  0.76736355  1.0
  Ti  Ti5645  1  0.33839755  0.97938447  0.76736355  1.0
  Ti  Ti5646  1  0.42173088  0.14605114  0.76736355  1.0
  Ti  Ti5647  1  0.42173088  0.31271780  0.76736355  1.0
  Ti  Ti5648  1  0.42173088  0.47938447  0.76736355  1.0
  Ti  Ti5649  1  0.42173088  0.64605114  0.76736355  1.0
  Ti  Ti5650  1  0.42173088  0.81271780  0.76736355  1.0
  Ti  Ti5651  1  0.42173088  0.97938447  0.76736355  1.0
  Ti  Ti5652  1  0.50506421  0.14605114  0.76736355  1.0
  Ti  Ti5653  1  0.50506421  0.31271780  0.76736355  1.0
  Ti  Ti5654  1  0.50506421  0.47938447  0.76736355  1.0
  Ti  Ti5655  1  0.50506421  0.64605114  0.76736355  1.0
  Ti  Ti5656  1  0.50506421  0.81271780  0.76736355  1.0
  Ti  Ti5657  1  0.50506421  0.97938447  0.76736355  1.0
  Ti  Ti5658  1  0.58839755  0.14605114  0.76736355  1.0
  Ti  Ti5659  1  0.58839755  0.31271780  0.76736355  1.0
  Ti  Ti5660  1  0.58839755  0.47938447  0.76736355  1.0
  Ti  Ti5661  1  0.58839755  0.64605114  0.76736355  1.0
  Ti  Ti5662  1  0.58839755  0.81271780  0.76736355  1.0
  Ti  Ti5663  1  0.58839755  0.97938447  0.76736355  1.0
  Ti  Ti5664  1  0.67173088  0.14605114  0.76736355  1.0
  Ti  Ti5665  1  0.67173088  0.31271780  0.76736355  1.0
  Ti  Ti5666  1  0.67173088  0.47938447  0.76736355  1.0
  Ti  Ti5667  1  0.67173088  0.64605114  0.76736355  1.0
  Ti  Ti5668  1  0.67173088  0.81271780  0.76736355  1.0
  Ti  Ti5669  1  0.67173088  0.97938447  0.76736355  1.0
  Ti  Ti5670  1  0.75506421  0.14605114  0.76736355  1.0
  Ti  Ti5671  1  0.75506421  0.31271780  0.76736355  1.0
  Ti  Ti5672  1  0.75506421  0.47938447  0.76736355  1.0
  Ti  Ti5673  1  0.75506421  0.64605114  0.76736355  1.0
  Ti  Ti5674  1  0.75506421  0.81271780  0.76736355  1.0
  Ti  Ti5675  1  0.75506421  0.97938447  0.76736355  1.0
  Ti  Ti5676  1  0.83839755  0.14605114  0.76736355  1.0
  Ti  Ti5677  1  0.83839755  0.31271780  0.76736355  1.0
  Ti  Ti5678  1  0.83839755  0.47938447  0.76736355  1.0
  Ti  Ti5679  1  0.83839755  0.64605114  0.76736355  1.0
  Ti  Ti5680  1  0.83839755  0.81271780  0.76736355  1.0
  Ti  Ti5681  1  0.83839755  0.97938447  0.76736355  1.0
  Ti  Ti5682  1  0.92173088  0.14605114  0.76736355  1.0
  Ti  Ti5683  1  0.92173088  0.31271780  0.76736355  1.0
  Ti  Ti5684  1  0.92173088  0.47938447  0.76736355  1.0
  Ti  Ti5685  1  0.92173088  0.64605114  0.76736355  1.0
  Ti  Ti5686  1  0.92173088  0.81271780  0.76736355  1.0
  Ti  Ti5687  1  0.92173088  0.97938447  0.76736355  1.0
  Ti  Ti5688  1  0.02887374  0.15795590  0.69593498  1.0
  Ti  Ti5689  1  0.02887374  0.32462256  0.69593498  1.0
  Ti  Ti5690  1  0.02887374  0.49128923  0.69593498  1.0
  Ti  Ti5691  1  0.02887374  0.65795590  0.69593498  1.0
  Ti  Ti5692  1  0.02887374  0.82462256  0.69593498  1.0
  Ti  Ti5693  1  0.02887374  0.99128923  0.69593498  1.0
  Ti  Ti5694  1  0.11220707  0.15795590  0.69593498  1.0
  Ti  Ti5695  1  0.11220707  0.32462256  0.69593498  1.0
  Ti  Ti5696  1  0.11220707  0.49128923  0.69593498  1.0
  Ti  Ti5697  1  0.11220707  0.65795590  0.69593498  1.0
  Ti  Ti5698  1  0.11220707  0.82462256  0.69593498  1.0
  Ti  Ti5699  1  0.11220707  0.99128923  0.69593498  1.0
  Ti  Ti5700  1  0.19554040  0.15795590  0.69593498  1.0
  Ti  Ti5701  1  0.19554040  0.32462256  0.69593498  1.0
  Ti  Ti5702  1  0.19554040  0.49128923  0.69593498  1.0
  Ti  Ti5703  1  0.19554040  0.65795590  0.69593498  1.0
  Ti  Ti5704  1  0.19554040  0.82462256  0.69593498  1.0
  Ti  Ti5705  1  0.19554040  0.99128923  0.69593498  1.0
  Ti  Ti5706  1  0.27887374  0.15795590  0.69593498  1.0
  Ti  Ti5707  1  0.27887374  0.32462256  0.69593498  1.0
  Ti  Ti5708  1  0.27887374  0.49128923  0.69593498  1.0
  Ti  Ti5709  1  0.27887374  0.65795590  0.69593498  1.0
  Ti  Ti5710  1  0.27887374  0.82462256  0.69593498  1.0
  Ti  Ti5711  1  0.27887374  0.99128923  0.69593498  1.0
  Ti  Ti5712  1  0.36220707  0.15795590  0.69593498  1.0
  Ti  Ti5713  1  0.36220707  0.32462256  0.69593498  1.0
  Ti  Ti5714  1  0.36220707  0.49128923  0.69593498  1.0
  Ti  Ti5715  1  0.36220707  0.65795590  0.69593498  1.0
  Ti  Ti5716  1  0.36220707  0.82462256  0.69593498  1.0
  Ti  Ti5717  1  0.36220707  0.99128923  0.69593498  1.0
  Ti  Ti5718  1  0.44554040  0.15795590  0.69593498  1.0
  Ti  Ti5719  1  0.44554040  0.32462256  0.69593498  1.0
  Ti  Ti5720  1  0.44554040  0.49128923  0.69593498  1.0
  Ti  Ti5721  1  0.44554040  0.65795590  0.69593498  1.0
  Ti  Ti5722  1  0.44554040  0.82462256  0.69593498  1.0
  Ti  Ti5723  1  0.44554040  0.99128923  0.69593498  1.0
  Ti  Ti5724  1  0.52887374  0.15795590  0.69593498  1.0
  Ti  Ti5725  1  0.52887374  0.32462256  0.69593498  1.0
  Ti  Ti5726  1  0.52887374  0.49128923  0.69593498  1.0
  Ti  Ti5727  1  0.52887374  0.65795590  0.69593498  1.0
  Ti  Ti5728  1  0.52887374  0.82462256  0.69593498  1.0
  Ti  Ti5729  1  0.52887374  0.99128923  0.69593498  1.0
  Ti  Ti5730  1  0.61220707  0.15795590  0.69593498  1.0
  Ti  Ti5731  1  0.61220707  0.32462256  0.69593498  1.0
  Ti  Ti5732  1  0.61220707  0.49128923  0.69593498  1.0
  Ti  Ti5733  1  0.61220707  0.65795590  0.69593498  1.0
  Ti  Ti5734  1  0.61220707  0.82462256  0.69593498  1.0
  Ti  Ti5735  1  0.61220707  0.99128923  0.69593498  1.0
  Ti  Ti5736  1  0.69554040  0.15795590  0.69593498  1.0
  Ti  Ti5737  1  0.69554040  0.32462256  0.69593498  1.0
  Ti  Ti5738  1  0.69554040  0.49128923  0.69593498  1.0
  Ti  Ti5739  1  0.69554040  0.65795590  0.69593498  1.0
  Ti  Ti5740  1  0.69554040  0.82462256  0.69593498  1.0
  Ti  Ti5741  1  0.69554040  0.99128923  0.69593498  1.0
  Ti  Ti5742  1  0.77887374  0.15795590  0.69593498  1.0
  Ti  Ti5743  1  0.77887374  0.32462256  0.69593498  1.0
  Ti  Ti5744  1  0.77887374  0.49128923  0.69593498  1.0
  Ti  Ti5745  1  0.77887374  0.65795590  0.69593498  1.0
  Ti  Ti5746  1  0.77887374  0.82462256  0.69593498  1.0
  Ti  Ti5747  1  0.77887374  0.99128923  0.69593498  1.0
  Ti  Ti5748  1  0.86220707  0.15795590  0.69593498  1.0
  Ti  Ti5749  1  0.86220707  0.32462256  0.69593498  1.0
  Ti  Ti5750  1  0.86220707  0.49128923  0.69593498  1.0
  Ti  Ti5751  1  0.86220707  0.65795590  0.69593498  1.0
  Ti  Ti5752  1  0.86220707  0.82462256  0.69593498  1.0
  Ti  Ti5753  1  0.86220707  0.99128923  0.69593498  1.0
  Ti  Ti5754  1  0.94554040  0.15795590  0.69593498  1.0
  Ti  Ti5755  1  0.94554040  0.32462256  0.69593498  1.0
  Ti  Ti5756  1  0.94554040  0.49128923  0.69593498  1.0
  Ti  Ti5757  1  0.94554040  0.65795590  0.69593498  1.0
  Ti  Ti5758  1  0.94554040  0.82462256  0.69593498  1.0
  Ti  Ti5759  1  0.94554040  0.99128923  0.69593498  1.0
  Ti  Ti5760  1  0.00881054  0.09867842  0.76000897  1.0
  Ti  Ti5761  1  0.00881054  0.26534508  0.76000897  1.0
  Ti  Ti5762  1  0.00881054  0.43201175  0.76000897  1.0
  Ti  Ti5763  1  0.00881054  0.59867842  0.76000897  1.0
  Ti  Ti5764  1  0.00881054  0.76534508  0.76000897  1.0
  Ti  Ti5765  1  0.00881054  0.93201175  0.76000897  1.0
  Ti  Ti5766  1  0.09214388  0.09867842  0.76000897  1.0
  Ti  Ti5767  1  0.09214388  0.26534508  0.76000897  1.0
  Ti  Ti5768  1  0.09214388  0.43201175  0.76000897  1.0
  Ti  Ti5769  1  0.09214388  0.59867842  0.76000897  1.0
  Ti  Ti5770  1  0.09214388  0.76534508  0.76000897  1.0
  Ti  Ti5771  1  0.09214388  0.93201175  0.76000897  1.0
  Ti  Ti5772  1  0.17547721  0.09867842  0.76000897  1.0
  Ti  Ti5773  1  0.17547721  0.26534508  0.76000897  1.0
  Ti  Ti5774  1  0.17547721  0.43201175  0.76000897  1.0
  Ti  Ti5775  1  0.17547721  0.59867842  0.76000897  1.0
  Ti  Ti5776  1  0.17547721  0.76534508  0.76000897  1.0
  Ti  Ti5777  1  0.17547721  0.93201175  0.76000897  1.0
  Ti  Ti5778  1  0.25881054  0.09867842  0.76000897  1.0
  Ti  Ti5779  1  0.25881054  0.26534508  0.76000897  1.0
  Ti  Ti5780  1  0.25881054  0.43201175  0.76000897  1.0
  Ti  Ti5781  1  0.25881054  0.59867842  0.76000897  1.0
  Ti  Ti5782  1  0.25881054  0.76534508  0.76000897  1.0
  Ti  Ti5783  1  0.25881054  0.93201175  0.76000897  1.0
  Ti  Ti5784  1  0.34214388  0.09867842  0.76000897  1.0
  Ti  Ti5785  1  0.34214388  0.26534508  0.76000897  1.0
  Ti  Ti5786  1  0.34214388  0.43201175  0.76000897  1.0
  Ti  Ti5787  1  0.34214388  0.59867842  0.76000897  1.0
  Ti  Ti5788  1  0.34214388  0.76534508  0.76000897  1.0
  Ti  Ti5789  1  0.34214388  0.93201175  0.76000897  1.0
  Ti  Ti5790  1  0.42547721  0.09867842  0.76000897  1.0
  Ti  Ti5791  1  0.42547721  0.26534508  0.76000897  1.0
  Ti  Ti5792  1  0.42547721  0.43201175  0.76000897  1.0
  Ti  Ti5793  1  0.42547721  0.59867842  0.76000897  1.0
  Ti  Ti5794  1  0.42547721  0.76534508  0.76000897  1.0
  Ti  Ti5795  1  0.42547721  0.93201175  0.76000897  1.0
  Ti  Ti5796  1  0.50881054  0.09867842  0.76000897  1.0
  Ti  Ti5797  1  0.50881054  0.26534508  0.76000897  1.0
  Ti  Ti5798  1  0.50881054  0.43201175  0.76000897  1.0
  Ti  Ti5799  1  0.50881054  0.59867842  0.76000897  1.0
  Ti  Ti5800  1  0.50881054  0.76534508  0.76000897  1.0
  Ti  Ti5801  1  0.50881054  0.93201175  0.76000897  1.0
  Ti  Ti5802  1  0.59214388  0.09867842  0.76000897  1.0
  Ti  Ti5803  1  0.59214388  0.26534508  0.76000897  1.0
  Ti  Ti5804  1  0.59214388  0.43201175  0.76000897  1.0
  Ti  Ti5805  1  0.59214388  0.59867842  0.76000897  1.0
  Ti  Ti5806  1  0.59214388  0.76534508  0.76000897  1.0
  Ti  Ti5807  1  0.59214388  0.93201175  0.76000897  1.0
  Ti  Ti5808  1  0.67547721  0.09867842  0.76000897  1.0
  Ti  Ti5809  1  0.67547721  0.26534508  0.76000897  1.0
  Ti  Ti5810  1  0.67547721  0.43201175  0.76000897  1.0
  Ti  Ti5811  1  0.67547721  0.59867842  0.76000897  1.0
  Ti  Ti5812  1  0.67547721  0.76534508  0.76000897  1.0
  Ti  Ti5813  1  0.67547721  0.93201175  0.76000897  1.0
  Ti  Ti5814  1  0.75881054  0.09867842  0.76000897  1.0
  Ti  Ti5815  1  0.75881054  0.26534508  0.76000897  1.0
  Ti  Ti5816  1  0.75881054  0.43201175  0.76000897  1.0
  Ti  Ti5817  1  0.75881054  0.59867842  0.76000897  1.0
  Ti  Ti5818  1  0.75881054  0.76534508  0.76000897  1.0
  Ti  Ti5819  1  0.75881054  0.93201175  0.76000897  1.0
  Ti  Ti5820  1  0.84214388  0.09867842  0.76000897  1.0
  Ti  Ti5821  1  0.84214388  0.26534508  0.76000897  1.0
  Ti  Ti5822  1  0.84214388  0.43201175  0.76000897  1.0
  Ti  Ti5823  1  0.84214388  0.59867842  0.76000897  1.0
  Ti  Ti5824  1  0.84214388  0.76534508  0.76000897  1.0
  Ti  Ti5825  1  0.84214388  0.93201175  0.76000897  1.0
  Ti  Ti5826  1  0.92547721  0.09867842  0.76000897  1.0
  Ti  Ti5827  1  0.92547721  0.26534508  0.76000897  1.0
  Ti  Ti5828  1  0.92547721  0.43201175  0.76000897  1.0
  Ti  Ti5829  1  0.92547721  0.59867842  0.76000897  1.0
  Ti  Ti5830  1  0.92547721  0.76534508  0.76000897  1.0
  Ti  Ti5831  1  0.92547721  0.93201175  0.76000897  1.0
  Ti  Ti5832  1  0.03262007  0.11058318  0.68858040  1.0
  Ti  Ti5833  1  0.03262007  0.27724985  0.68858040  1.0
  Ti  Ti5834  1  0.03262007  0.44391651  0.68858040  1.0
  Ti  Ti5835  1  0.03262007  0.61058318  0.68858040  1.0
  Ti  Ti5836  1  0.03262007  0.77724985  0.68858040  1.0
  Ti  Ti5837  1  0.03262007  0.94391651  0.68858040  1.0
  Ti  Ti5838  1  0.11595340  0.11058318  0.68858040  1.0
  Ti  Ti5839  1  0.11595340  0.27724985  0.68858040  1.0
  Ti  Ti5840  1  0.11595340  0.44391651  0.68858040  1.0
  Ti  Ti5841  1  0.11595340  0.61058318  0.68858040  1.0
  Ti  Ti5842  1  0.11595340  0.77724985  0.68858040  1.0
  Ti  Ti5843  1  0.11595340  0.94391651  0.68858040  1.0
  Ti  Ti5844  1  0.19928673  0.11058318  0.68858040  1.0
  Ti  Ti5845  1  0.19928673  0.27724985  0.68858040  1.0
  Ti  Ti5846  1  0.19928673  0.44391651  0.68858040  1.0
  Ti  Ti5847  1  0.19928673  0.61058318  0.68858040  1.0
  Ti  Ti5848  1  0.19928673  0.77724985  0.68858040  1.0
  Ti  Ti5849  1  0.19928673  0.94391651  0.68858040  1.0
  Ti  Ti5850  1  0.28262007  0.11058318  0.68858040  1.0
  Ti  Ti5851  1  0.28262007  0.27724985  0.68858040  1.0
  Ti  Ti5852  1  0.28262007  0.44391651  0.68858040  1.0
  Ti  Ti5853  1  0.28262007  0.61058318  0.68858040  1.0
  Ti  Ti5854  1  0.28262007  0.77724985  0.68858040  1.0
  Ti  Ti5855  1  0.28262007  0.94391651  0.68858040  1.0
  Ti  Ti5856  1  0.36595340  0.11058318  0.68858040  1.0
  Ti  Ti5857  1  0.36595340  0.27724985  0.68858040  1.0
  Ti  Ti5858  1  0.36595340  0.44391651  0.68858040  1.0
  Ti  Ti5859  1  0.36595340  0.61058318  0.68858040  1.0
  Ti  Ti5860  1  0.36595340  0.77724985  0.68858040  1.0
  Ti  Ti5861  1  0.36595340  0.94391651  0.68858040  1.0
  Ti  Ti5862  1  0.44928673  0.11058318  0.68858040  1.0
  Ti  Ti5863  1  0.44928673  0.27724985  0.68858040  1.0
  Ti  Ti5864  1  0.44928673  0.44391651  0.68858040  1.0
  Ti  Ti5865  1  0.44928673  0.61058318  0.68858040  1.0
  Ti  Ti5866  1  0.44928673  0.77724985  0.68858040  1.0
  Ti  Ti5867  1  0.44928673  0.94391651  0.68858040  1.0
  Ti  Ti5868  1  0.53262007  0.11058318  0.68858040  1.0
  Ti  Ti5869  1  0.53262007  0.27724985  0.68858040  1.0
  Ti  Ti5870  1  0.53262007  0.44391651  0.68858040  1.0
  Ti  Ti5871  1  0.53262007  0.61058318  0.68858040  1.0
  Ti  Ti5872  1  0.53262007  0.77724985  0.68858040  1.0
  Ti  Ti5873  1  0.53262007  0.94391651  0.68858040  1.0
  Ti  Ti5874  1  0.61595340  0.11058318  0.68858040  1.0
  Ti  Ti5875  1  0.61595340  0.27724985  0.68858040  1.0
  Ti  Ti5876  1  0.61595340  0.44391651  0.68858040  1.0
  Ti  Ti5877  1  0.61595340  0.61058318  0.68858040  1.0
  Ti  Ti5878  1  0.61595340  0.77724985  0.68858040  1.0
  Ti  Ti5879  1  0.61595340  0.94391651  0.68858040  1.0
  Ti  Ti5880  1  0.69928673  0.11058318  0.68858040  1.0
  Ti  Ti5881  1  0.69928673  0.27724985  0.68858040  1.0
  Ti  Ti5882  1  0.69928673  0.44391651  0.68858040  1.0
  Ti  Ti5883  1  0.69928673  0.61058318  0.68858040  1.0
  Ti  Ti5884  1  0.69928673  0.77724985  0.68858040  1.0
  Ti  Ti5885  1  0.69928673  0.94391651  0.68858040  1.0
  Ti  Ti5886  1  0.78262007  0.11058318  0.68858040  1.0
  Ti  Ti5887  1  0.78262007  0.27724985  0.68858040  1.0
  Ti  Ti5888  1  0.78262007  0.44391651  0.68858040  1.0
  Ti  Ti5889  1  0.78262007  0.61058318  0.68858040  1.0
  Ti  Ti5890  1  0.78262007  0.77724985  0.68858040  1.0
  Ti  Ti5891  1  0.78262007  0.94391651  0.68858040  1.0
  Ti  Ti5892  1  0.86595340  0.11058318  0.68858040  1.0
  Ti  Ti5893  1  0.86595340  0.27724985  0.68858040  1.0
  Ti  Ti5894  1  0.86595340  0.44391651  0.68858040  1.0
  Ti  Ti5895  1  0.86595340  0.61058318  0.68858040  1.0
  Ti  Ti5896  1  0.86595340  0.77724985  0.68858040  1.0
  Ti  Ti5897  1  0.86595340  0.94391651  0.68858040  1.0
  Ti  Ti5898  1  0.94928673  0.11058318  0.68858040  1.0
  Ti  Ti5899  1  0.94928673  0.27724985  0.68858040  1.0
  Ti  Ti5900  1  0.94928673  0.44391651  0.68858040  1.0
  Ti  Ti5901  1  0.94928673  0.61058318  0.68858040  1.0
  Ti  Ti5902  1  0.94928673  0.77724985  0.68858040  1.0
  Ti  Ti5903  1  0.94928673  0.94391651  0.68858040  1.0
  Ti  Ti5904  1  0.00185022  0.02330410  0.77728256  1.0
  Ti  Ti5905  1  0.00185022  0.18997077  0.77728256  1.0
  Ti  Ti5906  1  0.00185022  0.35663743  0.77728256  1.0
  Ti  Ti5907  1  0.00185022  0.52330410  0.77728256  1.0
  Ti  Ti5908  1  0.00185022  0.68997077  0.77728256  1.0
  Ti  Ti5909  1  0.00185022  0.85663743  0.77728256  1.0
  Ti  Ti5910  1  0.08518355  0.02330410  0.77728256  1.0
  Ti  Ti5911  1  0.08518355  0.18997077  0.77728256  1.0
  Ti  Ti5912  1  0.08518355  0.35663743  0.77728256  1.0
  Ti  Ti5913  1  0.08518355  0.52330410  0.77728256  1.0
  Ti  Ti5914  1  0.08518355  0.68997077  0.77728256  1.0
  Ti  Ti5915  1  0.08518355  0.85663743  0.77728256  1.0
  Ti  Ti5916  1  0.16851688  0.02330410  0.77728256  1.0
  Ti  Ti5917  1  0.16851688  0.18997077  0.77728256  1.0
  Ti  Ti5918  1  0.16851688  0.35663743  0.77728256  1.0
  Ti  Ti5919  1  0.16851688  0.52330410  0.77728256  1.0
  Ti  Ti5920  1  0.16851688  0.68997077  0.77728256  1.0
  Ti  Ti5921  1  0.16851688  0.85663743  0.77728256  1.0
  Ti  Ti5922  1  0.25185022  0.02330410  0.77728256  1.0
  Ti  Ti5923  1  0.25185022  0.18997077  0.77728256  1.0
  Ti  Ti5924  1  0.25185022  0.35663743  0.77728256  1.0
  Ti  Ti5925  1  0.25185022  0.52330410  0.77728256  1.0
  Ti  Ti5926  1  0.25185022  0.68997077  0.77728256  1.0
  Ti  Ti5927  1  0.25185022  0.85663743  0.77728256  1.0
  Ti  Ti5928  1  0.33518355  0.02330410  0.77728256  1.0
  Ti  Ti5929  1  0.33518355  0.18997077  0.77728256  1.0
  Ti  Ti5930  1  0.33518355  0.35663743  0.77728256  1.0
  Ti  Ti5931  1  0.33518355  0.52330410  0.77728256  1.0
  Ti  Ti5932  1  0.33518355  0.68997077  0.77728256  1.0
  Ti  Ti5933  1  0.33518355  0.85663743  0.77728256  1.0
  Ti  Ti5934  1  0.41851688  0.02330410  0.77728256  1.0
  Ti  Ti5935  1  0.41851688  0.18997077  0.77728256  1.0
  Ti  Ti5936  1  0.41851688  0.35663743  0.77728256  1.0
  Ti  Ti5937  1  0.41851688  0.52330410  0.77728256  1.0
  Ti  Ti5938  1  0.41851688  0.68997077  0.77728256  1.0
  Ti  Ti5939  1  0.41851688  0.85663743  0.77728256  1.0
  Ti  Ti5940  1  0.50185022  0.02330410  0.77728256  1.0
  Ti  Ti5941  1  0.50185022  0.18997077  0.77728256  1.0
  Ti  Ti5942  1  0.50185022  0.35663743  0.77728256  1.0
  Ti  Ti5943  1  0.50185022  0.52330410  0.77728256  1.0
  Ti  Ti5944  1  0.50185022  0.68997077  0.77728256  1.0
  Ti  Ti5945  1  0.50185022  0.85663743  0.77728256  1.0
  Ti  Ti5946  1  0.58518355  0.02330410  0.77728256  1.0
  Ti  Ti5947  1  0.58518355  0.18997077  0.77728256  1.0
  Ti  Ti5948  1  0.58518355  0.35663743  0.77728256  1.0
  Ti  Ti5949  1  0.58518355  0.52330410  0.77728256  1.0
  Ti  Ti5950  1  0.58518355  0.68997077  0.77728256  1.0
  Ti  Ti5951  1  0.58518355  0.85663743  0.77728256  1.0
  Ti  Ti5952  1  0.66851688  0.02330410  0.77728256  1.0
  Ti  Ti5953  1  0.66851688  0.18997077  0.77728256  1.0
  Ti  Ti5954  1  0.66851688  0.35663743  0.77728256  1.0
  Ti  Ti5955  1  0.66851688  0.52330410  0.77728256  1.0
  Ti  Ti5956  1  0.66851688  0.68997077  0.77728256  1.0
  Ti  Ti5957  1  0.66851688  0.85663743  0.77728256  1.0
  Ti  Ti5958  1  0.75185022  0.02330410  0.77728256  1.0
  Ti  Ti5959  1  0.75185022  0.18997077  0.77728256  1.0
  Ti  Ti5960  1  0.75185022  0.35663743  0.77728256  1.0
  Ti  Ti5961  1  0.75185022  0.52330410  0.77728256  1.0
  Ti  Ti5962  1  0.75185022  0.68997077  0.77728256  1.0
  Ti  Ti5963  1  0.75185022  0.85663743  0.77728256  1.0
  Ti  Ti5964  1  0.83518355  0.02330410  0.77728256  1.0
  Ti  Ti5965  1  0.83518355  0.18997077  0.77728256  1.0
  Ti  Ti5966  1  0.83518355  0.35663743  0.77728256  1.0
  Ti  Ti5967  1  0.83518355  0.52330410  0.77728256  1.0
  Ti  Ti5968  1  0.83518355  0.68997077  0.77728256  1.0
  Ti  Ti5969  1  0.83518355  0.85663743  0.77728256  1.0
  Ti  Ti5970  1  0.91851688  0.02330410  0.77728256  1.0
  Ti  Ti5971  1  0.91851688  0.18997077  0.77728256  1.0
  Ti  Ti5972  1  0.91851688  0.35663743  0.77728256  1.0
  Ti  Ti5973  1  0.91851688  0.52330410  0.77728256  1.0
  Ti  Ti5974  1  0.91851688  0.68997077  0.77728256  1.0
  Ti  Ti5975  1  0.91851688  0.85663743  0.77728256  1.0
  Ti  Ti5976  1  0.02565974  0.03520886  0.70585399  1.0
  Ti  Ti5977  1  0.02565974  0.20187553  0.70585399  1.0
  Ti  Ti5978  1  0.02565974  0.36854220  0.70585399  1.0
  Ti  Ti5979  1  0.02565974  0.53520886  0.70585399  1.0
  Ti  Ti5980  1  0.02565974  0.70187553  0.70585399  1.0
  Ti  Ti5981  1  0.02565974  0.86854220  0.70585399  1.0
  Ti  Ti5982  1  0.10899307  0.03520886  0.70585399  1.0
  Ti  Ti5983  1  0.10899307  0.20187553  0.70585399  1.0
  Ti  Ti5984  1  0.10899307  0.36854220  0.70585399  1.0
  Ti  Ti5985  1  0.10899307  0.53520886  0.70585399  1.0
  Ti  Ti5986  1  0.10899307  0.70187553  0.70585399  1.0
  Ti  Ti5987  1  0.10899307  0.86854220  0.70585399  1.0
  Ti  Ti5988  1  0.19232641  0.03520886  0.70585399  1.0
  Ti  Ti5989  1  0.19232641  0.20187553  0.70585399  1.0
  Ti  Ti5990  1  0.19232641  0.36854220  0.70585399  1.0
  Ti  Ti5991  1  0.19232641  0.53520886  0.70585399  1.0
  Ti  Ti5992  1  0.19232641  0.70187553  0.70585399  1.0
  Ti  Ti5993  1  0.19232641  0.86854220  0.70585399  1.0
  Ti  Ti5994  1  0.27565974  0.03520886  0.70585399  1.0
  Ti  Ti5995  1  0.27565974  0.20187553  0.70585399  1.0
  Ti  Ti5996  1  0.27565974  0.36854220  0.70585399  1.0
  Ti  Ti5997  1  0.27565974  0.53520886  0.70585399  1.0
  Ti  Ti5998  1  0.27565974  0.70187553  0.70585399  1.0
  Ti  Ti5999  1  0.27565974  0.86854220  0.70585399  1.0
  Ti  Ti6000  1  0.35899307  0.03520886  0.70585399  1.0
  Ti  Ti6001  1  0.35899307  0.20187553  0.70585399  1.0
  Ti  Ti6002  1  0.35899307  0.36854220  0.70585399  1.0
  Ti  Ti6003  1  0.35899307  0.53520886  0.70585399  1.0
  Ti  Ti6004  1  0.35899307  0.70187553  0.70585399  1.0
  Ti  Ti6005  1  0.35899307  0.86854220  0.70585399  1.0
  Ti  Ti6006  1  0.44232641  0.03520886  0.70585399  1.0
  Ti  Ti6007  1  0.44232641  0.20187553  0.70585399  1.0
  Ti  Ti6008  1  0.44232641  0.36854220  0.70585399  1.0
  Ti  Ti6009  1  0.44232641  0.53520886  0.70585399  1.0
  Ti  Ti6010  1  0.44232641  0.70187553  0.70585399  1.0
  Ti  Ti6011  1  0.44232641  0.86854220  0.70585399  1.0
  Ti  Ti6012  1  0.52565974  0.03520886  0.70585399  1.0
  Ti  Ti6013  1  0.52565974  0.20187553  0.70585399  1.0
  Ti  Ti6014  1  0.52565974  0.36854220  0.70585399  1.0
  Ti  Ti6015  1  0.52565974  0.53520886  0.70585399  1.0
  Ti  Ti6016  1  0.52565974  0.70187553  0.70585399  1.0
  Ti  Ti6017  1  0.52565974  0.86854220  0.70585399  1.0
  Ti  Ti6018  1  0.60899307  0.03520886  0.70585399  1.0
  Ti  Ti6019  1  0.60899307  0.20187553  0.70585399  1.0
  Ti  Ti6020  1  0.60899307  0.36854220  0.70585399  1.0
  Ti  Ti6021  1  0.60899307  0.53520886  0.70585399  1.0
  Ti  Ti6022  1  0.60899307  0.70187553  0.70585399  1.0
  Ti  Ti6023  1  0.60899307  0.86854220  0.70585399  1.0
  Ti  Ti6024  1  0.69232641  0.03520886  0.70585399  1.0
  Ti  Ti6025  1  0.69232641  0.20187553  0.70585399  1.0
  Ti  Ti6026  1  0.69232641  0.36854220  0.70585399  1.0
  Ti  Ti6027  1  0.69232641  0.53520886  0.70585399  1.0
  Ti  Ti6028  1  0.69232641  0.70187553  0.70585399  1.0
  Ti  Ti6029  1  0.69232641  0.86854220  0.70585399  1.0
  Ti  Ti6030  1  0.77565974  0.03520886  0.70585399  1.0
  Ti  Ti6031  1  0.77565974  0.20187553  0.70585399  1.0
  Ti  Ti6032  1  0.77565974  0.36854220  0.70585399  1.0
  Ti  Ti6033  1  0.77565974  0.53520886  0.70585399  1.0
  Ti  Ti6034  1  0.77565974  0.70187553  0.70585399  1.0
  Ti  Ti6035  1  0.77565974  0.86854220  0.70585399  1.0
  Ti  Ti6036  1  0.85899307  0.03520886  0.70585399  1.0
  Ti  Ti6037  1  0.85899307  0.20187553  0.70585399  1.0
  Ti  Ti6038  1  0.85899307  0.36854220  0.70585399  1.0
  Ti  Ti6039  1  0.85899307  0.53520886  0.70585399  1.0
  Ti  Ti6040  1  0.85899307  0.70187553  0.70585399  1.0
  Ti  Ti6041  1  0.85899307  0.86854220  0.70585399  1.0
  Ti  Ti6042  1  0.94232641  0.03520886  0.70585399  1.0
  Ti  Ti6043  1  0.94232641  0.20187553  0.70585399  1.0
  Ti  Ti6044  1  0.94232641  0.36854220  0.70585399  1.0
  Ti  Ti6045  1  0.94232641  0.53520886  0.70585399  1.0
  Ti  Ti6046  1  0.94232641  0.70187553  0.70585399  1.0
  Ti  Ti6047  1  0.94232641  0.86854220  0.70585399  1.0
  O  O6048  1  0.07538418  0.04148838  0.24577942  1.0
  O  O6049  1  0.07538418  0.20815505  0.24577942  1.0
  O  O6050  1  0.07538418  0.37482172  0.24577942  1.0
  O  O6051  1  0.07538418  0.54148838  0.24577942  1.0
  O  O6052  1  0.07538418  0.70815505  0.24577942  1.0
  O  O6053  1  0.07538418  0.87482172  0.24577942  1.0
  O  O6054  1  0.15871751  0.04148838  0.24577942  1.0
  O  O6055  1  0.15871751  0.20815505  0.24577942  1.0
  O  O6056  1  0.15871751  0.37482172  0.24577942  1.0
  O  O6057  1  0.15871751  0.54148838  0.24577942  1.0
  O  O6058  1  0.15871751  0.70815505  0.24577942  1.0
  O  O6059  1  0.15871751  0.87482172  0.24577942  1.0
  O  O6060  1  0.24205085  0.04148838  0.24577942  1.0
  O  O6061  1  0.24205085  0.20815505  0.24577942  1.0
  O  O6062  1  0.24205085  0.37482172  0.24577942  1.0
  O  O6063  1  0.24205085  0.54148838  0.24577942  1.0
  O  O6064  1  0.24205085  0.70815505  0.24577942  1.0
  O  O6065  1  0.24205085  0.87482172  0.24577942  1.0
  O  O6066  1  0.32538418  0.04148838  0.24577942  1.0
  O  O6067  1  0.32538418  0.20815505  0.24577942  1.0
  O  O6068  1  0.32538418  0.37482172  0.24577942  1.0
  O  O6069  1  0.32538418  0.54148838  0.24577942  1.0
  O  O6070  1  0.32538418  0.70815505  0.24577942  1.0
  O  O6071  1  0.32538418  0.87482172  0.24577942  1.0
  O  O6072  1  0.40871751  0.04148838  0.24577942  1.0
  O  O6073  1  0.40871751  0.20815505  0.24577942  1.0
  O  O6074  1  0.40871751  0.37482172  0.24577942  1.0
  O  O6075  1  0.40871751  0.54148838  0.24577942  1.0
  O  O6076  1  0.40871751  0.70815505  0.24577942  1.0
  O  O6077  1  0.40871751  0.87482172  0.24577942  1.0
  O  O6078  1  0.49205085  0.04148838  0.24577942  1.0
  O  O6079  1  0.49205085  0.20815505  0.24577942  1.0
  O  O6080  1  0.49205085  0.37482172  0.24577942  1.0
  O  O6081  1  0.49205085  0.54148838  0.24577942  1.0
  O  O6082  1  0.49205085  0.70815505  0.24577942  1.0
  O  O6083  1  0.49205085  0.87482172  0.24577942  1.0
  O  O6084  1  0.57538418  0.04148838  0.24577942  1.0
  O  O6085  1  0.57538418  0.20815505  0.24577942  1.0
  O  O6086  1  0.57538418  0.37482172  0.24577942  1.0
  O  O6087  1  0.57538418  0.54148838  0.24577942  1.0
  O  O6088  1  0.57538418  0.70815505  0.24577942  1.0
  O  O6089  1  0.57538418  0.87482172  0.24577942  1.0
  O  O6090  1  0.65871751  0.04148838  0.24577942  1.0
  O  O6091  1  0.65871751  0.20815505  0.24577942  1.0
  O  O6092  1  0.65871751  0.37482172  0.24577942  1.0
  O  O6093  1  0.65871751  0.54148838  0.24577942  1.0
  O  O6094  1  0.65871751  0.70815505  0.24577942  1.0
  O  O6095  1  0.65871751  0.87482172  0.24577942  1.0
  O  O6096  1  0.74205085  0.04148838  0.24577942  1.0
  O  O6097  1  0.74205085  0.20815505  0.24577942  1.0
  O  O6098  1  0.74205085  0.37482172  0.24577942  1.0
  O  O6099  1  0.74205085  0.54148838  0.24577942  1.0
  O  O6100  1  0.74205085  0.70815505  0.24577942  1.0
  O  O6101  1  0.74205085  0.87482172  0.24577942  1.0
  O  O6102  1  0.82538418  0.04148838  0.24577942  1.0
  O  O6103  1  0.82538418  0.20815505  0.24577942  1.0
  O  O6104  1  0.82538418  0.37482172  0.24577942  1.0
  O  O6105  1  0.82538418  0.54148838  0.24577942  1.0
  O  O6106  1  0.82538418  0.70815505  0.24577942  1.0
  O  O6107  1  0.82538418  0.87482172  0.24577942  1.0
  O  O6108  1  0.90871751  0.04148838  0.24577942  1.0
  O  O6109  1  0.90871751  0.20815505  0.24577942  1.0
  O  O6110  1  0.90871751  0.37482172  0.24577942  1.0
  O  O6111  1  0.90871751  0.54148838  0.24577942  1.0
  O  O6112  1  0.90871751  0.70815505  0.24577942  1.0
  O  O6113  1  0.90871751  0.87482172  0.24577942  1.0
  O  O6114  1  0.99205085  0.04148838  0.24577942  1.0
  O  O6115  1  0.99205085  0.20815505  0.24577942  1.0
  O  O6116  1  0.99205085  0.37482172  0.24577942  1.0
  O  O6117  1  0.99205085  0.54148838  0.24577942  1.0
  O  O6118  1  0.99205085  0.70815505  0.24577942  1.0
  O  O6119  1  0.99205085  0.87482172  0.24577942  1.0
  O  O6120  1  0.05157466  0.02958362  0.31720799  1.0
  O  O6121  1  0.05157466  0.19625029  0.31720799  1.0
  O  O6122  1  0.05157466  0.36291695  0.31720799  1.0
  O  O6123  1  0.05157466  0.52958362  0.31720799  1.0
  O  O6124  1  0.05157466  0.69625029  0.31720799  1.0
  O  O6125  1  0.05157466  0.86291695  0.31720799  1.0
  O  O6126  1  0.13490799  0.02958362  0.31720799  1.0
  O  O6127  1  0.13490799  0.19625029  0.31720799  1.0
  O  O6128  1  0.13490799  0.36291695  0.31720799  1.0
  O  O6129  1  0.13490799  0.52958362  0.31720799  1.0
  O  O6130  1  0.13490799  0.69625029  0.31720799  1.0
  O  O6131  1  0.13490799  0.86291695  0.31720799  1.0
  O  O6132  1  0.21824132  0.02958362  0.31720799  1.0
  O  O6133  1  0.21824132  0.19625029  0.31720799  1.0
  O  O6134  1  0.21824132  0.36291695  0.31720799  1.0
  O  O6135  1  0.21824132  0.52958362  0.31720799  1.0
  O  O6136  1  0.21824132  0.69625029  0.31720799  1.0
  O  O6137  1  0.21824132  0.86291695  0.31720799  1.0
  O  O6138  1  0.30157466  0.02958362  0.31720799  1.0
  O  O6139  1  0.30157466  0.19625029  0.31720799  1.0
  O  O6140  1  0.30157466  0.36291695  0.31720799  1.0
  O  O6141  1  0.30157466  0.52958362  0.31720799  1.0
  O  O6142  1  0.30157466  0.69625029  0.31720799  1.0
  O  O6143  1  0.30157466  0.86291695  0.31720799  1.0
  O  O6144  1  0.38490799  0.02958362  0.31720799  1.0
  O  O6145  1  0.38490799  0.19625029  0.31720799  1.0
  O  O6146  1  0.38490799  0.36291695  0.31720799  1.0
  O  O6147  1  0.38490799  0.52958362  0.31720799  1.0
  O  O6148  1  0.38490799  0.69625029  0.31720799  1.0
  O  O6149  1  0.38490799  0.86291695  0.31720799  1.0
  O  O6150  1  0.46824132  0.02958362  0.31720799  1.0
  O  O6151  1  0.46824132  0.19625029  0.31720799  1.0
  O  O6152  1  0.46824132  0.36291695  0.31720799  1.0
  O  O6153  1  0.46824132  0.52958362  0.31720799  1.0
  O  O6154  1  0.46824132  0.69625029  0.31720799  1.0
  O  O6155  1  0.46824132  0.86291695  0.31720799  1.0
  O  O6156  1  0.55157466  0.02958362  0.31720799  1.0
  O  O6157  1  0.55157466  0.19625029  0.31720799  1.0
  O  O6158  1  0.55157466  0.36291695  0.31720799  1.0
  O  O6159  1  0.55157466  0.52958362  0.31720799  1.0
  O  O6160  1  0.55157466  0.69625029  0.31720799  1.0
  O  O6161  1  0.55157466  0.86291695  0.31720799  1.0
  O  O6162  1  0.63490799  0.02958362  0.31720799  1.0
  O  O6163  1  0.63490799  0.19625029  0.31720799  1.0
  O  O6164  1  0.63490799  0.36291695  0.31720799  1.0
  O  O6165  1  0.63490799  0.52958362  0.31720799  1.0
  O  O6166  1  0.63490799  0.69625029  0.31720799  1.0
  O  O6167  1  0.63490799  0.86291695  0.31720799  1.0
  O  O6168  1  0.71824132  0.02958362  0.31720799  1.0
  O  O6169  1  0.71824132  0.19625029  0.31720799  1.0
  O  O6170  1  0.71824132  0.36291695  0.31720799  1.0
  O  O6171  1  0.71824132  0.52958362  0.31720799  1.0
  O  O6172  1  0.71824132  0.69625029  0.31720799  1.0
  O  O6173  1  0.71824132  0.86291695  0.31720799  1.0
  O  O6174  1  0.80157466  0.02958362  0.31720799  1.0
  O  O6175  1  0.80157466  0.19625029  0.31720799  1.0
  O  O6176  1  0.80157466  0.36291695  0.31720799  1.0
  O  O6177  1  0.80157466  0.52958362  0.31720799  1.0
  O  O6178  1  0.80157466  0.69625029  0.31720799  1.0
  O  O6179  1  0.80157466  0.86291695  0.31720799  1.0
  O  O6180  1  0.88490799  0.02958362  0.31720799  1.0
  O  O6181  1  0.88490799  0.19625029  0.31720799  1.0
  O  O6182  1  0.88490799  0.36291695  0.31720799  1.0
  O  O6183  1  0.88490799  0.52958362  0.31720799  1.0
  O  O6184  1  0.88490799  0.69625029  0.31720799  1.0
  O  O6185  1  0.88490799  0.86291695  0.31720799  1.0
  O  O6186  1  0.96824132  0.02958362  0.31720799  1.0
  O  O6187  1  0.96824132  0.19625029  0.31720799  1.0
  O  O6188  1  0.96824132  0.36291695  0.31720799  1.0
  O  O6189  1  0.96824132  0.52958362  0.31720799  1.0
  O  O6190  1  0.96824132  0.69625029  0.31720799  1.0
  O  O6191  1  0.96824132  0.86291695  0.31720799  1.0
  O  O6192  1  0.05587389  0.15142798  0.30646133  1.0
  O  O6193  1  0.05587389  0.31809464  0.30646133  1.0
  O  O6194  1  0.05587389  0.48476131  0.30646133  1.0
  O  O6195  1  0.05587389  0.65142798  0.30646133  1.0
  O  O6196  1  0.05587389  0.81809464  0.30646133  1.0
  O  O6197  1  0.05587389  0.98476131  0.30646133  1.0
  O  O6198  1  0.13920722  0.15142798  0.30646133  1.0
  O  O6199  1  0.13920722  0.31809464  0.30646133  1.0
  O  O6200  1  0.13920722  0.48476131  0.30646133  1.0
  O  O6201  1  0.13920722  0.65142798  0.30646133  1.0
  O  O6202  1  0.13920722  0.81809464  0.30646133  1.0
  O  O6203  1  0.13920722  0.98476131  0.30646133  1.0
  O  O6204  1  0.22254055  0.15142798  0.30646133  1.0
  O  O6205  1  0.22254055  0.31809464  0.30646133  1.0
  O  O6206  1  0.22254055  0.48476131  0.30646133  1.0
  O  O6207  1  0.22254055  0.65142798  0.30646133  1.0
  O  O6208  1  0.22254055  0.81809464  0.30646133  1.0
  O  O6209  1  0.22254055  0.98476131  0.30646133  1.0
  O  O6210  1  0.30587389  0.15142798  0.30646133  1.0
  O  O6211  1  0.30587389  0.31809464  0.30646133  1.0
  O  O6212  1  0.30587389  0.48476131  0.30646133  1.0
  O  O6213  1  0.30587389  0.65142798  0.30646133  1.0
  O  O6214  1  0.30587389  0.81809464  0.30646133  1.0
  O  O6215  1  0.30587389  0.98476131  0.30646133  1.0
  O  O6216  1  0.38920722  0.15142798  0.30646133  1.0
  O  O6217  1  0.38920722  0.31809464  0.30646133  1.0
  O  O6218  1  0.38920722  0.48476131  0.30646133  1.0
  O  O6219  1  0.38920722  0.65142798  0.30646133  1.0
  O  O6220  1  0.38920722  0.81809464  0.30646133  1.0
  O  O6221  1  0.38920722  0.98476131  0.30646133  1.0
  O  O6222  1  0.47254055  0.15142798  0.30646133  1.0
  O  O6223  1  0.47254055  0.31809464  0.30646133  1.0
  O  O6224  1  0.47254055  0.48476131  0.30646133  1.0
  O  O6225  1  0.47254055  0.65142798  0.30646133  1.0
  O  O6226  1  0.47254055  0.81809464  0.30646133  1.0
  O  O6227  1  0.47254055  0.98476131  0.30646133  1.0
  O  O6228  1  0.55587389  0.15142798  0.30646133  1.0
  O  O6229  1  0.55587389  0.31809464  0.30646133  1.0
  O  O6230  1  0.55587389  0.48476131  0.30646133  1.0
  O  O6231  1  0.55587389  0.65142798  0.30646133  1.0
  O  O6232  1  0.55587389  0.81809464  0.30646133  1.0
  O  O6233  1  0.55587389  0.98476131  0.30646133  1.0
  O  O6234  1  0.63920722  0.15142798  0.30646133  1.0
  O  O6235  1  0.63920722  0.31809464  0.30646133  1.0
  O  O6236  1  0.63920722  0.48476131  0.30646133  1.0
  O  O6237  1  0.63920722  0.65142798  0.30646133  1.0
  O  O6238  1  0.63920722  0.81809464  0.30646133  1.0
  O  O6239  1  0.63920722  0.98476131  0.30646133  1.0
  O  O6240  1  0.72254055  0.15142798  0.30646133  1.0
  O  O6241  1  0.72254055  0.31809464  0.30646133  1.0
  O  O6242  1  0.72254055  0.48476131  0.30646133  1.0
  O  O6243  1  0.72254055  0.65142798  0.30646133  1.0
  O  O6244  1  0.72254055  0.81809464  0.30646133  1.0
  O  O6245  1  0.72254055  0.98476131  0.30646133  1.0
  O  O6246  1  0.80587389  0.15142798  0.30646133  1.0
  O  O6247  1  0.80587389  0.31809464  0.30646133  1.0
  O  O6248  1  0.80587389  0.48476131  0.30646133  1.0
  O  O6249  1  0.80587389  0.65142798  0.30646133  1.0
  O  O6250  1  0.80587389  0.81809464  0.30646133  1.0
  O  O6251  1  0.80587389  0.98476131  0.30646133  1.0
  O  O6252  1  0.88920722  0.15142798  0.30646133  1.0
  O  O6253  1  0.88920722  0.31809464  0.30646133  1.0
  O  O6254  1  0.88920722  0.48476131  0.30646133  1.0
  O  O6255  1  0.88920722  0.65142798  0.30646133  1.0
  O  O6256  1  0.88920722  0.81809464  0.30646133  1.0
  O  O6257  1  0.88920722  0.98476131  0.30646133  1.0
  O  O6258  1  0.97254055  0.15142798  0.30646133  1.0
  O  O6259  1  0.97254055  0.31809464  0.30646133  1.0
  O  O6260  1  0.97254055  0.48476131  0.30646133  1.0
  O  O6261  1  0.97254055  0.65142798  0.30646133  1.0
  O  O6262  1  0.97254055  0.81809464  0.30646133  1.0
  O  O6263  1  0.97254055  0.98476131  0.30646133  1.0
  O  O6264  1  0.03255540  0.06411129  0.25073921  1.0
  O  O6265  1  0.03255540  0.23077796  0.25073921  1.0
  O  O6266  1  0.03255540  0.39744462  0.25073921  1.0
  O  O6267  1  0.03255540  0.56411129  0.25073921  1.0
  O  O6268  1  0.03255540  0.73077796  0.25073921  1.0
  O  O6269  1  0.03255540  0.89744462  0.25073921  1.0
  O  O6270  1  0.11588874  0.06411129  0.25073921  1.0
  O  O6271  1  0.11588874  0.23077796  0.25073921  1.0
  O  O6272  1  0.11588874  0.39744462  0.25073921  1.0
  O  O6273  1  0.11588874  0.56411129  0.25073921  1.0
  O  O6274  1  0.11588874  0.73077796  0.25073921  1.0
  O  O6275  1  0.11588874  0.89744462  0.25073921  1.0
  O  O6276  1  0.19922207  0.06411129  0.25073921  1.0
  O  O6277  1  0.19922207  0.23077796  0.25073921  1.0
  O  O6278  1  0.19922207  0.39744462  0.25073921  1.0
  O  O6279  1  0.19922207  0.56411129  0.25073921  1.0
  O  O6280  1  0.19922207  0.73077796  0.25073921  1.0
  O  O6281  1  0.19922207  0.89744462  0.25073921  1.0
  O  O6282  1  0.28255540  0.06411129  0.25073921  1.0
  O  O6283  1  0.28255540  0.23077796  0.25073921  1.0
  O  O6284  1  0.28255540  0.39744462  0.25073921  1.0
  O  O6285  1  0.28255540  0.56411129  0.25073921  1.0
  O  O6286  1  0.28255540  0.73077796  0.25073921  1.0
  O  O6287  1  0.28255540  0.89744462  0.25073921  1.0
  O  O6288  1  0.36588874  0.06411129  0.25073921  1.0
  O  O6289  1  0.36588874  0.23077796  0.25073921  1.0
  O  O6290  1  0.36588874  0.39744462  0.25073921  1.0
  O  O6291  1  0.36588874  0.56411129  0.25073921  1.0
  O  O6292  1  0.36588874  0.73077796  0.25073921  1.0
  O  O6293  1  0.36588874  0.89744462  0.25073921  1.0
  O  O6294  1  0.44922207  0.06411129  0.25073921  1.0
  O  O6295  1  0.44922207  0.23077796  0.25073921  1.0
  O  O6296  1  0.44922207  0.39744462  0.25073921  1.0
  O  O6297  1  0.44922207  0.56411129  0.25073921  1.0
  O  O6298  1  0.44922207  0.73077796  0.25073921  1.0
  O  O6299  1  0.44922207  0.89744462  0.25073921  1.0
  O  O6300  1  0.53255540  0.06411129  0.25073921  1.0
  O  O6301  1  0.53255540  0.23077796  0.25073921  1.0
  O  O6302  1  0.53255540  0.39744462  0.25073921  1.0
  O  O6303  1  0.53255540  0.56411129  0.25073921  1.0
  O  O6304  1  0.53255540  0.73077796  0.25073921  1.0
  O  O6305  1  0.53255540  0.89744462  0.25073921  1.0
  O  O6306  1  0.61588874  0.06411129  0.25073921  1.0
  O  O6307  1  0.61588874  0.23077796  0.25073921  1.0
  O  O6308  1  0.61588874  0.39744462  0.25073921  1.0
  O  O6309  1  0.61588874  0.56411129  0.25073921  1.0
  O  O6310  1  0.61588874  0.73077796  0.25073921  1.0
  O  O6311  1  0.61588874  0.89744462  0.25073921  1.0
  O  O6312  1  0.69922207  0.06411129  0.25073921  1.0
  O  O6313  1  0.69922207  0.23077796  0.25073921  1.0
  O  O6314  1  0.69922207  0.39744462  0.25073921  1.0
  O  O6315  1  0.69922207  0.56411129  0.25073921  1.0
  O  O6316  1  0.69922207  0.73077796  0.25073921  1.0
  O  O6317  1  0.69922207  0.89744462  0.25073921  1.0
  O  O6318  1  0.78255540  0.06411129  0.25073921  1.0
  O  O6319  1  0.78255540  0.23077796  0.25073921  1.0
  O  O6320  1  0.78255540  0.39744462  0.25073921  1.0
  O  O6321  1  0.78255540  0.56411129  0.25073921  1.0
  O  O6322  1  0.78255540  0.73077796  0.25073921  1.0
  O  O6323  1  0.78255540  0.89744462  0.25073921  1.0
  O  O6324  1  0.86588874  0.06411129  0.25073921  1.0
  O  O6325  1  0.86588874  0.23077796  0.25073921  1.0
  O  O6326  1  0.86588874  0.39744462  0.25073921  1.0
  O  O6327  1  0.86588874  0.56411129  0.25073921  1.0
  O  O6328  1  0.86588874  0.73077796  0.25073921  1.0
  O  O6329  1  0.86588874  0.89744462  0.25073921  1.0
  O  O6330  1  0.94922207  0.06411129  0.25073921  1.0
  O  O6331  1  0.94922207  0.23077796  0.25073921  1.0
  O  O6332  1  0.94922207  0.39744462  0.25073921  1.0
  O  O6333  1  0.94922207  0.56411129  0.25073921  1.0
  O  O6334  1  0.94922207  0.73077796  0.25073921  1.0
  O  O6335  1  0.94922207  0.89744462  0.25073921  1.0
  O  O6336  1  0.00874588  0.05220653  0.32216778  1.0
  O  O6337  1  0.00874588  0.21887319  0.32216778  1.0
  O  O6338  1  0.00874588  0.38553986  0.32216778  1.0
  O  O6339  1  0.00874588  0.55220653  0.32216778  1.0
  O  O6340  1  0.00874588  0.71887319  0.32216778  1.0
  O  O6341  1  0.00874588  0.88553986  0.32216778  1.0
  O  O6342  1  0.09207921  0.05220653  0.32216778  1.0
  O  O6343  1  0.09207921  0.21887319  0.32216778  1.0
  O  O6344  1  0.09207921  0.38553986  0.32216778  1.0
  O  O6345  1  0.09207921  0.55220653  0.32216778  1.0
  O  O6346  1  0.09207921  0.71887319  0.32216778  1.0
  O  O6347  1  0.09207921  0.88553986  0.32216778  1.0
  O  O6348  1  0.17541255  0.05220653  0.32216778  1.0
  O  O6349  1  0.17541255  0.21887319  0.32216778  1.0
  O  O6350  1  0.17541255  0.38553986  0.32216778  1.0
  O  O6351  1  0.17541255  0.55220653  0.32216778  1.0
  O  O6352  1  0.17541255  0.71887319  0.32216778  1.0
  O  O6353  1  0.17541255  0.88553986  0.32216778  1.0
  O  O6354  1  0.25874588  0.05220653  0.32216778  1.0
  O  O6355  1  0.25874588  0.21887319  0.32216778  1.0
  O  O6356  1  0.25874588  0.38553986  0.32216778  1.0
  O  O6357  1  0.25874588  0.55220653  0.32216778  1.0
  O  O6358  1  0.25874588  0.71887319  0.32216778  1.0
  O  O6359  1  0.25874588  0.88553986  0.32216778  1.0
  O  O6360  1  0.34207921  0.05220653  0.32216778  1.0
  O  O6361  1  0.34207921  0.21887319  0.32216778  1.0
  O  O6362  1  0.34207921  0.38553986  0.32216778  1.0
  O  O6363  1  0.34207921  0.55220653  0.32216778  1.0
  O  O6364  1  0.34207921  0.71887319  0.32216778  1.0
  O  O6365  1  0.34207921  0.88553986  0.32216778  1.0
  O  O6366  1  0.42541255  0.05220653  0.32216778  1.0
  O  O6367  1  0.42541255  0.21887319  0.32216778  1.0
  O  O6368  1  0.42541255  0.38553986  0.32216778  1.0
  O  O6369  1  0.42541255  0.55220653  0.32216778  1.0
  O  O6370  1  0.42541255  0.71887319  0.32216778  1.0
  O  O6371  1  0.42541255  0.88553986  0.32216778  1.0
  O  O6372  1  0.50874588  0.05220653  0.32216778  1.0
  O  O6373  1  0.50874588  0.21887319  0.32216778  1.0
  O  O6374  1  0.50874588  0.38553986  0.32216778  1.0
  O  O6375  1  0.50874588  0.55220653  0.32216778  1.0
  O  O6376  1  0.50874588  0.71887319  0.32216778  1.0
  O  O6377  1  0.50874588  0.88553986  0.32216778  1.0
  O  O6378  1  0.59207921  0.05220653  0.32216778  1.0
  O  O6379  1  0.59207921  0.21887319  0.32216778  1.0
  O  O6380  1  0.59207921  0.38553986  0.32216778  1.0
  O  O6381  1  0.59207921  0.55220653  0.32216778  1.0
  O  O6382  1  0.59207921  0.71887319  0.32216778  1.0
  O  O6383  1  0.59207921  0.88553986  0.32216778  1.0
  O  O6384  1  0.67541255  0.05220653  0.32216778  1.0
  O  O6385  1  0.67541255  0.21887319  0.32216778  1.0
  O  O6386  1  0.67541255  0.38553986  0.32216778  1.0
  O  O6387  1  0.67541255  0.55220653  0.32216778  1.0
  O  O6388  1  0.67541255  0.71887319  0.32216778  1.0
  O  O6389  1  0.67541255  0.88553986  0.32216778  1.0
  O  O6390  1  0.75874588  0.05220653  0.32216778  1.0
  O  O6391  1  0.75874588  0.21887319  0.32216778  1.0
  O  O6392  1  0.75874588  0.38553986  0.32216778  1.0
  O  O6393  1  0.75874588  0.55220653  0.32216778  1.0
  O  O6394  1  0.75874588  0.71887319  0.32216778  1.0
  O  O6395  1  0.75874588  0.88553986  0.32216778  1.0
  O  O6396  1  0.84207921  0.05220653  0.32216778  1.0
  O  O6397  1  0.84207921  0.21887319  0.32216778  1.0
  O  O6398  1  0.84207921  0.38553986  0.32216778  1.0
  O  O6399  1  0.84207921  0.55220653  0.32216778  1.0
  O  O6400  1  0.84207921  0.71887319  0.32216778  1.0
  O  O6401  1  0.84207921  0.88553986  0.32216778  1.0
  O  O6402  1  0.92541255  0.05220653  0.32216778  1.0
  O  O6403  1  0.92541255  0.21887319  0.32216778  1.0
  O  O6404  1  0.92541255  0.38553986  0.32216778  1.0
  O  O6405  1  0.92541255  0.55220653  0.32216778  1.0
  O  O6406  1  0.92541255  0.71887319  0.32216778  1.0
  O  O6407  1  0.92541255  0.88553986  0.32216778  1.0
  O  O6408  1  0.01157859  0.00724703  0.31277167  1.0
  O  O6409  1  0.01157859  0.17391369  0.31277167  1.0
  O  O6410  1  0.01157859  0.34058036  0.31277167  1.0
  O  O6411  1  0.01157859  0.50724703  0.31277167  1.0
  O  O6412  1  0.01157859  0.67391369  0.31277167  1.0
  O  O6413  1  0.01157859  0.84058036  0.31277167  1.0
  O  O6414  1  0.09491192  0.00724703  0.31277167  1.0
  O  O6415  1  0.09491192  0.17391369  0.31277167  1.0
  O  O6416  1  0.09491192  0.34058036  0.31277167  1.0
  O  O6417  1  0.09491192  0.50724703  0.31277167  1.0
  O  O6418  1  0.09491192  0.67391369  0.31277167  1.0
  O  O6419  1  0.09491192  0.84058036  0.31277167  1.0
  O  O6420  1  0.17824526  0.00724703  0.31277167  1.0
  O  O6421  1  0.17824526  0.17391369  0.31277167  1.0
  O  O6422  1  0.17824526  0.34058036  0.31277167  1.0
  O  O6423  1  0.17824526  0.50724703  0.31277167  1.0
  O  O6424  1  0.17824526  0.67391369  0.31277167  1.0
  O  O6425  1  0.17824526  0.84058036  0.31277167  1.0
  O  O6426  1  0.26157859  0.00724703  0.31277167  1.0
  O  O6427  1  0.26157859  0.17391369  0.31277167  1.0
  O  O6428  1  0.26157859  0.34058036  0.31277167  1.0
  O  O6429  1  0.26157859  0.50724703  0.31277167  1.0
  O  O6430  1  0.26157859  0.67391369  0.31277167  1.0
  O  O6431  1  0.26157859  0.84058036  0.31277167  1.0
  O  O6432  1  0.34491192  0.00724703  0.31277167  1.0
  O  O6433  1  0.34491192  0.17391369  0.31277167  1.0
  O  O6434  1  0.34491192  0.34058036  0.31277167  1.0
  O  O6435  1  0.34491192  0.50724703  0.31277167  1.0
  O  O6436  1  0.34491192  0.67391369  0.31277167  1.0
  O  O6437  1  0.34491192  0.84058036  0.31277167  1.0
  O  O6438  1  0.42824526  0.00724703  0.31277167  1.0
  O  O6439  1  0.42824526  0.17391369  0.31277167  1.0
  O  O6440  1  0.42824526  0.34058036  0.31277167  1.0
  O  O6441  1  0.42824526  0.50724703  0.31277167  1.0
  O  O6442  1  0.42824526  0.67391369  0.31277167  1.0
  O  O6443  1  0.42824526  0.84058036  0.31277167  1.0
  O  O6444  1  0.51157859  0.00724703  0.31277167  1.0
  O  O6445  1  0.51157859  0.17391369  0.31277167  1.0
  O  O6446  1  0.51157859  0.34058036  0.31277167  1.0
  O  O6447  1  0.51157859  0.50724703  0.31277167  1.0
  O  O6448  1  0.51157859  0.67391369  0.31277167  1.0
  O  O6449  1  0.51157859  0.84058036  0.31277167  1.0
  O  O6450  1  0.59491192  0.00724703  0.31277167  1.0
  O  O6451  1  0.59491192  0.17391369  0.31277167  1.0
  O  O6452  1  0.59491192  0.34058036  0.31277167  1.0
  O  O6453  1  0.59491192  0.50724703  0.31277167  1.0
  O  O6454  1  0.59491192  0.67391369  0.31277167  1.0
  O  O6455  1  0.59491192  0.84058036  0.31277167  1.0
  O  O6456  1  0.67824526  0.00724703  0.31277167  1.0
  O  O6457  1  0.67824526  0.17391369  0.31277167  1.0
  O  O6458  1  0.67824526  0.34058036  0.31277167  1.0
  O  O6459  1  0.67824526  0.50724703  0.31277167  1.0
  O  O6460  1  0.67824526  0.67391369  0.31277167  1.0
  O  O6461  1  0.67824526  0.84058036  0.31277167  1.0
  O  O6462  1  0.76157859  0.00724703  0.31277167  1.0
  O  O6463  1  0.76157859  0.17391369  0.31277167  1.0
  O  O6464  1  0.76157859  0.34058036  0.31277167  1.0
  O  O6465  1  0.76157859  0.50724703  0.31277167  1.0
  O  O6466  1  0.76157859  0.67391369  0.31277167  1.0
  O  O6467  1  0.76157859  0.84058036  0.31277167  1.0
  O  O6468  1  0.84491192  0.00724703  0.31277167  1.0
  O  O6469  1  0.84491192  0.17391369  0.31277167  1.0
  O  O6470  1  0.84491192  0.34058036  0.31277167  1.0
  O  O6471  1  0.84491192  0.50724703  0.31277167  1.0
  O  O6472  1  0.84491192  0.67391369  0.31277167  1.0
  O  O6473  1  0.84491192  0.84058036  0.31277167  1.0
  O  O6474  1  0.92824526  0.00724703  0.31277167  1.0
  O  O6475  1  0.92824526  0.17391369  0.31277167  1.0
  O  O6476  1  0.92824526  0.34058036  0.31277167  1.0
  O  O6477  1  0.92824526  0.50724703  0.31277167  1.0
  O  O6478  1  0.92824526  0.67391369  0.31277167  1.0
  O  O6479  1  0.92824526  0.84058036  0.31277167  1.0
  O  O6480  1  0.04082118  0.00201710  0.34804243  1.0
  O  O6481  1  0.04082118  0.16868377  0.34804243  1.0
  O  O6482  1  0.04082118  0.33535043  0.34804243  1.0
  O  O6483  1  0.04082118  0.50201710  0.34804243  1.0
  O  O6484  1  0.04082118  0.66868377  0.34804243  1.0
  O  O6485  1  0.04082118  0.83535043  0.34804243  1.0
  O  O6486  1  0.12415452  0.00201710  0.34804243  1.0
  O  O6487  1  0.12415452  0.16868377  0.34804243  1.0
  O  O6488  1  0.12415452  0.33535043  0.34804243  1.0
  O  O6489  1  0.12415452  0.50201710  0.34804243  1.0
  O  O6490  1  0.12415452  0.66868377  0.34804243  1.0
  O  O6491  1  0.12415452  0.83535043  0.34804243  1.0
  O  O6492  1  0.20748785  0.00201710  0.34804243  1.0
  O  O6493  1  0.20748785  0.16868377  0.34804243  1.0
  O  O6494  1  0.20748785  0.33535043  0.34804243  1.0
  O  O6495  1  0.20748785  0.50201710  0.34804243  1.0
  O  O6496  1  0.20748785  0.66868377  0.34804243  1.0
  O  O6497  1  0.20748785  0.83535043  0.34804243  1.0
  O  O6498  1  0.29082118  0.00201710  0.34804243  1.0
  O  O6499  1  0.29082118  0.16868377  0.34804243  1.0
  O  O6500  1  0.29082118  0.33535043  0.34804243  1.0
  O  O6501  1  0.29082118  0.50201710  0.34804243  1.0
  O  O6502  1  0.29082118  0.66868377  0.34804243  1.0
  O  O6503  1  0.29082118  0.83535043  0.34804243  1.0
  O  O6504  1  0.37415452  0.00201710  0.34804243  1.0
  O  O6505  1  0.37415452  0.16868377  0.34804243  1.0
  O  O6506  1  0.37415452  0.33535043  0.34804243  1.0
  O  O6507  1  0.37415452  0.50201710  0.34804243  1.0
  O  O6508  1  0.37415452  0.66868377  0.34804243  1.0
  O  O6509  1  0.37415452  0.83535043  0.34804243  1.0
  O  O6510  1  0.45748785  0.00201710  0.34804243  1.0
  O  O6511  1  0.45748785  0.16868377  0.34804243  1.0
  O  O6512  1  0.45748785  0.33535043  0.34804243  1.0
  O  O6513  1  0.45748785  0.50201710  0.34804243  1.0
  O  O6514  1  0.45748785  0.66868377  0.34804243  1.0
  O  O6515  1  0.45748785  0.83535043  0.34804243  1.0
  O  O6516  1  0.54082118  0.00201710  0.34804243  1.0
  O  O6517  1  0.54082118  0.16868377  0.34804243  1.0
  O  O6518  1  0.54082118  0.33535043  0.34804243  1.0
  O  O6519  1  0.54082118  0.50201710  0.34804243  1.0
  O  O6520  1  0.54082118  0.66868377  0.34804243  1.0
  O  O6521  1  0.54082118  0.83535043  0.34804243  1.0
  O  O6522  1  0.62415452  0.00201710  0.34804243  1.0
  O  O6523  1  0.62415452  0.16868377  0.34804243  1.0
  O  O6524  1  0.62415452  0.33535043  0.34804243  1.0
  O  O6525  1  0.62415452  0.50201710  0.34804243  1.0
  O  O6526  1  0.62415452  0.66868377  0.34804243  1.0
  O  O6527  1  0.62415452  0.83535043  0.34804243  1.0
  O  O6528  1  0.70748785  0.00201710  0.34804243  1.0
  O  O6529  1  0.70748785  0.16868377  0.34804243  1.0
  O  O6530  1  0.70748785  0.33535043  0.34804243  1.0
  O  O6531  1  0.70748785  0.50201710  0.34804243  1.0
  O  O6532  1  0.70748785  0.66868377  0.34804243  1.0
  O  O6533  1  0.70748785  0.83535043  0.34804243  1.0
  O  O6534  1  0.79082118  0.00201710  0.34804243  1.0
  O  O6535  1  0.79082118  0.16868377  0.34804243  1.0
  O  O6536  1  0.79082118  0.33535043  0.34804243  1.0
  O  O6537  1  0.79082118  0.50201710  0.34804243  1.0
  O  O6538  1  0.79082118  0.66868377  0.34804243  1.0
  O  O6539  1  0.79082118  0.83535043  0.34804243  1.0
  O  O6540  1  0.87415452  0.00201710  0.34804243  1.0
  O  O6541  1  0.87415452  0.16868377  0.34804243  1.0
  O  O6542  1  0.87415452  0.33535043  0.34804243  1.0
  O  O6543  1  0.87415452  0.50201710  0.34804243  1.0
  O  O6544  1  0.87415452  0.66868377  0.34804243  1.0
  O  O6545  1  0.87415452  0.83535043  0.34804243  1.0
  O  O6546  1  0.95748785  0.00201710  0.34804243  1.0
  O  O6547  1  0.95748785  0.16868377  0.34804243  1.0
  O  O6548  1  0.95748785  0.33535043  0.34804243  1.0
  O  O6549  1  0.95748785  0.50201710  0.34804243  1.0
  O  O6550  1  0.95748785  0.66868377  0.34804243  1.0
  O  O6551  1  0.95748785  0.83535043  0.34804243  1.0
  O  O6552  1  0.06463071  0.01392186  0.27661386  1.0
  O  O6553  1  0.06463071  0.18058853  0.27661386  1.0
  O  O6554  1  0.06463071  0.34725520  0.27661386  1.0
  O  O6555  1  0.06463071  0.51392186  0.27661386  1.0
  O  O6556  1  0.06463071  0.68058853  0.27661386  1.0
  O  O6557  1  0.06463071  0.84725520  0.27661386  1.0
  O  O6558  1  0.14796404  0.01392186  0.27661386  1.0
  O  O6559  1  0.14796404  0.18058853  0.27661386  1.0
  O  O6560  1  0.14796404  0.34725520  0.27661386  1.0
  O  O6561  1  0.14796404  0.51392186  0.27661386  1.0
  O  O6562  1  0.14796404  0.68058853  0.27661386  1.0
  O  O6563  1  0.14796404  0.84725520  0.27661386  1.0
  O  O6564  1  0.23129737  0.01392186  0.27661386  1.0
  O  O6565  1  0.23129737  0.18058853  0.27661386  1.0
  O  O6566  1  0.23129737  0.34725520  0.27661386  1.0
  O  O6567  1  0.23129737  0.51392186  0.27661386  1.0
  O  O6568  1  0.23129737  0.68058853  0.27661386  1.0
  O  O6569  1  0.23129737  0.84725520  0.27661386  1.0
  O  O6570  1  0.31463071  0.01392186  0.27661386  1.0
  O  O6571  1  0.31463071  0.18058853  0.27661386  1.0
  O  O6572  1  0.31463071  0.34725520  0.27661386  1.0
  O  O6573  1  0.31463071  0.51392186  0.27661386  1.0
  O  O6574  1  0.31463071  0.68058853  0.27661386  1.0
  O  O6575  1  0.31463071  0.84725520  0.27661386  1.0
  O  O6576  1  0.39796404  0.01392186  0.27661386  1.0
  O  O6577  1  0.39796404  0.18058853  0.27661386  1.0
  O  O6578  1  0.39796404  0.34725520  0.27661386  1.0
  O  O6579  1  0.39796404  0.51392186  0.27661386  1.0
  O  O6580  1  0.39796404  0.68058853  0.27661386  1.0
  O  O6581  1  0.39796404  0.84725520  0.27661386  1.0
  O  O6582  1  0.48129737  0.01392186  0.27661386  1.0
  O  O6583  1  0.48129737  0.18058853  0.27661386  1.0
  O  O6584  1  0.48129737  0.34725520  0.27661386  1.0
  O  O6585  1  0.48129737  0.51392186  0.27661386  1.0
  O  O6586  1  0.48129737  0.68058853  0.27661386  1.0
  O  O6587  1  0.48129737  0.84725520  0.27661386  1.0
  O  O6588  1  0.56463071  0.01392186  0.27661386  1.0
  O  O6589  1  0.56463071  0.18058853  0.27661386  1.0
  O  O6590  1  0.56463071  0.34725520  0.27661386  1.0
  O  O6591  1  0.56463071  0.51392186  0.27661386  1.0
  O  O6592  1  0.56463071  0.68058853  0.27661386  1.0
  O  O6593  1  0.56463071  0.84725520  0.27661386  1.0
  O  O6594  1  0.64796404  0.01392186  0.27661386  1.0
  O  O6595  1  0.64796404  0.18058853  0.27661386  1.0
  O  O6596  1  0.64796404  0.34725520  0.27661386  1.0
  O  O6597  1  0.64796404  0.51392186  0.27661386  1.0
  O  O6598  1  0.64796404  0.68058853  0.27661386  1.0
  O  O6599  1  0.64796404  0.84725520  0.27661386  1.0
  O  O6600  1  0.73129737  0.01392186  0.27661386  1.0
  O  O6601  1  0.73129737  0.18058853  0.27661386  1.0
  O  O6602  1  0.73129737  0.34725520  0.27661386  1.0
  O  O6603  1  0.73129737  0.51392186  0.27661386  1.0
  O  O6604  1  0.73129737  0.68058853  0.27661386  1.0
  O  O6605  1  0.73129737  0.84725520  0.27661386  1.0
  O  O6606  1  0.81463071  0.01392186  0.27661386  1.0
  O  O6607  1  0.81463071  0.18058853  0.27661386  1.0
  O  O6608  1  0.81463071  0.34725520  0.27661386  1.0
  O  O6609  1  0.81463071  0.51392186  0.27661386  1.0
  O  O6610  1  0.81463071  0.68058853  0.27661386  1.0
  O  O6611  1  0.81463071  0.84725520  0.27661386  1.0
  O  O6612  1  0.89796404  0.01392186  0.27661386  1.0
  O  O6613  1  0.89796404  0.18058853  0.27661386  1.0
  O  O6614  1  0.89796404  0.34725520  0.27661386  1.0
  O  O6615  1  0.89796404  0.51392186  0.27661386  1.0
  O  O6616  1  0.89796404  0.68058853  0.27661386  1.0
  O  O6617  1  0.89796404  0.84725520  0.27661386  1.0
  O  O6618  1  0.98129737  0.01392186  0.27661386  1.0
  O  O6619  1  0.98129737  0.18058853  0.27661386  1.0
  O  O6620  1  0.98129737  0.34725520  0.27661386  1.0
  O  O6621  1  0.98129737  0.51392186  0.27661386  1.0
  O  O6622  1  0.98129737  0.68058853  0.27661386  1.0
  O  O6623  1  0.98129737  0.84725520  0.27661386  1.0
  O  O6624  1  0.06180100  0.05887717  0.28601495  1.0
  O  O6625  1  0.06180100  0.22554384  0.28601495  1.0
  O  O6626  1  0.06180100  0.39221051  0.28601495  1.0
  O  O6627  1  0.06180100  0.55887717  0.28601495  1.0
  O  O6628  1  0.06180100  0.72554384  0.28601495  1.0
  O  O6629  1  0.06180100  0.89221051  0.28601495  1.0
  O  O6630  1  0.14513434  0.05887717  0.28601495  1.0
  O  O6631  1  0.14513434  0.22554384  0.28601495  1.0
  O  O6632  1  0.14513434  0.39221051  0.28601495  1.0
  O  O6633  1  0.14513434  0.55887717  0.28601495  1.0
  O  O6634  1  0.14513434  0.72554384  0.28601495  1.0
  O  O6635  1  0.14513434  0.89221051  0.28601495  1.0
  O  O6636  1  0.22846767  0.05887717  0.28601495  1.0
  O  O6637  1  0.22846767  0.22554384  0.28601495  1.0
  O  O6638  1  0.22846767  0.39221051  0.28601495  1.0
  O  O6639  1  0.22846767  0.55887717  0.28601495  1.0
  O  O6640  1  0.22846767  0.72554384  0.28601495  1.0
  O  O6641  1  0.22846767  0.89221051  0.28601495  1.0
  O  O6642  1  0.31180100  0.05887717  0.28601495  1.0
  O  O6643  1  0.31180100  0.22554384  0.28601495  1.0
  O  O6644  1  0.31180100  0.39221051  0.28601495  1.0
  O  O6645  1  0.31180100  0.55887717  0.28601495  1.0
  O  O6646  1  0.31180100  0.72554384  0.28601495  1.0
  O  O6647  1  0.31180100  0.89221051  0.28601495  1.0
  O  O6648  1  0.39513434  0.05887717  0.28601495  1.0
  O  O6649  1  0.39513434  0.22554384  0.28601495  1.0
  O  O6650  1  0.39513434  0.39221051  0.28601495  1.0
  O  O6651  1  0.39513434  0.55887717  0.28601495  1.0
  O  O6652  1  0.39513434  0.72554384  0.28601495  1.0
  O  O6653  1  0.39513434  0.89221051  0.28601495  1.0
  O  O6654  1  0.47846767  0.05887717  0.28601495  1.0
  O  O6655  1  0.47846767  0.22554384  0.28601495  1.0
  O  O6656  1  0.47846767  0.39221051  0.28601495  1.0
  O  O6657  1  0.47846767  0.55887717  0.28601495  1.0
  O  O6658  1  0.47846767  0.72554384  0.28601495  1.0
  O  O6659  1  0.47846767  0.89221051  0.28601495  1.0
  O  O6660  1  0.56180100  0.05887717  0.28601495  1.0
  O  O6661  1  0.56180100  0.22554384  0.28601495  1.0
  O  O6662  1  0.56180100  0.39221051  0.28601495  1.0
  O  O6663  1  0.56180100  0.55887717  0.28601495  1.0
  O  O6664  1  0.56180100  0.72554384  0.28601495  1.0
  O  O6665  1  0.56180100  0.89221051  0.28601495  1.0
  O  O6666  1  0.64513434  0.05887717  0.28601495  1.0
  O  O6667  1  0.64513434  0.22554384  0.28601495  1.0
  O  O6668  1  0.64513434  0.39221051  0.28601495  1.0
  O  O6669  1  0.64513434  0.55887717  0.28601495  1.0
  O  O6670  1  0.64513434  0.72554384  0.28601495  1.0
  O  O6671  1  0.64513434  0.89221051  0.28601495  1.0
  O  O6672  1  0.72846767  0.05887717  0.28601495  1.0
  O  O6673  1  0.72846767  0.22554384  0.28601495  1.0
  O  O6674  1  0.72846767  0.39221051  0.28601495  1.0
  O  O6675  1  0.72846767  0.55887717  0.28601495  1.0
  O  O6676  1  0.72846767  0.72554384  0.28601495  1.0
  O  O6677  1  0.72846767  0.89221051  0.28601495  1.0
  O  O6678  1  0.81180100  0.05887717  0.28601495  1.0
  O  O6679  1  0.81180100  0.22554384  0.28601495  1.0
  O  O6680  1  0.81180100  0.39221051  0.28601495  1.0
  O  O6681  1  0.81180100  0.55887717  0.28601495  1.0
  O  O6682  1  0.81180100  0.72554384  0.28601495  1.0
  O  O6683  1  0.81180100  0.89221051  0.28601495  1.0
  O  O6684  1  0.89513434  0.05887717  0.28601495  1.0
  O  O6685  1  0.89513434  0.22554384  0.28601495  1.0
  O  O6686  1  0.89513434  0.39221051  0.28601495  1.0
  O  O6687  1  0.89513434  0.55887717  0.28601495  1.0
  O  O6688  1  0.89513434  0.72554384  0.28601495  1.0
  O  O6689  1  0.89513434  0.89221051  0.28601495  1.0
  O  O6690  1  0.97846767  0.05887717  0.28601495  1.0
  O  O6691  1  0.97846767  0.22554384  0.28601495  1.0
  O  O6692  1  0.97846767  0.39221051  0.28601495  1.0
  O  O6693  1  0.97846767  0.55887717  0.28601495  1.0
  O  O6694  1  0.97846767  0.72554384  0.28601495  1.0
  O  O6695  1  0.97846767  0.89221051  0.28601495  1.0
  O  O6696  1  0.05925739  0.10544645  0.29804108  1.0
  O  O6697  1  0.05925739  0.27211311  0.29804108  1.0
  O  O6698  1  0.05925739  0.43877978  0.29804108  1.0
  O  O6699  1  0.05925739  0.60544645  0.29804108  1.0
  O  O6700  1  0.05925739  0.77211311  0.29804108  1.0
  O  O6701  1  0.05925739  0.93877978  0.29804108  1.0
  O  O6702  1  0.14259072  0.10544645  0.29804108  1.0
  O  O6703  1  0.14259072  0.27211311  0.29804108  1.0
  O  O6704  1  0.14259072  0.43877978  0.29804108  1.0
  O  O6705  1  0.14259072  0.60544645  0.29804108  1.0
  O  O6706  1  0.14259072  0.77211311  0.29804108  1.0
  O  O6707  1  0.14259072  0.93877978  0.29804108  1.0
  O  O6708  1  0.22592406  0.10544645  0.29804108  1.0
  O  O6709  1  0.22592406  0.27211311  0.29804108  1.0
  O  O6710  1  0.22592406  0.43877978  0.29804108  1.0
  O  O6711  1  0.22592406  0.60544645  0.29804108  1.0
  O  O6712  1  0.22592406  0.77211311  0.29804108  1.0
  O  O6713  1  0.22592406  0.93877978  0.29804108  1.0
  O  O6714  1  0.30925739  0.10544645  0.29804108  1.0
  O  O6715  1  0.30925739  0.27211311  0.29804108  1.0
  O  O6716  1  0.30925739  0.43877978  0.29804108  1.0
  O  O6717  1  0.30925739  0.60544645  0.29804108  1.0
  O  O6718  1  0.30925739  0.77211311  0.29804108  1.0
  O  O6719  1  0.30925739  0.93877978  0.29804108  1.0
  O  O6720  1  0.39259072  0.10544645  0.29804108  1.0
  O  O6721  1  0.39259072  0.27211311  0.29804108  1.0
  O  O6722  1  0.39259072  0.43877978  0.29804108  1.0
  O  O6723  1  0.39259072  0.60544645  0.29804108  1.0
  O  O6724  1  0.39259072  0.77211311  0.29804108  1.0
  O  O6725  1  0.39259072  0.93877978  0.29804108  1.0
  O  O6726  1  0.47592406  0.10544645  0.29804108  1.0
  O  O6727  1  0.47592406  0.27211311  0.29804108  1.0
  O  O6728  1  0.47592406  0.43877978  0.29804108  1.0
  O  O6729  1  0.47592406  0.60544645  0.29804108  1.0
  O  O6730  1  0.47592406  0.77211311  0.29804108  1.0
  O  O6731  1  0.47592406  0.93877978  0.29804108  1.0
  O  O6732  1  0.55925739  0.10544645  0.29804108  1.0
  O  O6733  1  0.55925739  0.27211311  0.29804108  1.0
  O  O6734  1  0.55925739  0.43877978  0.29804108  1.0
  O  O6735  1  0.55925739  0.60544645  0.29804108  1.0
  O  O6736  1  0.55925739  0.77211311  0.29804108  1.0
  O  O6737  1  0.55925739  0.93877978  0.29804108  1.0
  O  O6738  1  0.64259072  0.10544645  0.29804108  1.0
  O  O6739  1  0.64259072  0.27211311  0.29804108  1.0
  O  O6740  1  0.64259072  0.43877978  0.29804108  1.0
  O  O6741  1  0.64259072  0.60544645  0.29804108  1.0
  O  O6742  1  0.64259072  0.77211311  0.29804108  1.0
  O  O6743  1  0.64259072  0.93877978  0.29804108  1.0
  O  O6744  1  0.72592406  0.10544645  0.29804108  1.0
  O  O6745  1  0.72592406  0.27211311  0.29804108  1.0
  O  O6746  1  0.72592406  0.43877978  0.29804108  1.0
  O  O6747  1  0.72592406  0.60544645  0.29804108  1.0
  O  O6748  1  0.72592406  0.77211311  0.29804108  1.0
  O  O6749  1  0.72592406  0.93877978  0.29804108  1.0
  O  O6750  1  0.80925739  0.10544645  0.29804108  1.0
  O  O6751  1  0.80925739  0.27211311  0.29804108  1.0
  O  O6752  1  0.80925739  0.43877978  0.29804108  1.0
  O  O6753  1  0.80925739  0.60544645  0.29804108  1.0
  O  O6754  1  0.80925739  0.77211311  0.29804108  1.0
  O  O6755  1  0.80925739  0.93877978  0.29804108  1.0
  O  O6756  1  0.89259072  0.10544645  0.29804108  1.0
  O  O6757  1  0.89259072  0.27211311  0.29804108  1.0
  O  O6758  1  0.89259072  0.43877978  0.29804108  1.0
  O  O6759  1  0.89259072  0.60544645  0.29804108  1.0
  O  O6760  1  0.89259072  0.77211311  0.29804108  1.0
  O  O6761  1  0.89259072  0.93877978  0.29804108  1.0
  O  O6762  1  0.97592406  0.10544645  0.29804108  1.0
  O  O6763  1  0.97592406  0.27211311  0.29804108  1.0
  O  O6764  1  0.97592406  0.43877978  0.29804108  1.0
  O  O6765  1  0.97592406  0.60544645  0.29804108  1.0
  O  O6766  1  0.97592406  0.77211311  0.29804108  1.0
  O  O6767  1  0.97592406  0.93877978  0.29804108  1.0
  O  O6768  1  0.08132590  0.02467561  0.35303175  1.0
  O  O6769  1  0.08132590  0.19134228  0.35303175  1.0
  O  O6770  1  0.08132590  0.35800895  0.35303175  1.0
  O  O6771  1  0.08132590  0.52467561  0.35303175  1.0
  O  O6772  1  0.08132590  0.69134228  0.35303175  1.0
  O  O6773  1  0.08132590  0.85800895  0.35303175  1.0
  O  O6774  1  0.16465923  0.02467561  0.35303175  1.0
  O  O6775  1  0.16465923  0.19134228  0.35303175  1.0
  O  O6776  1  0.16465923  0.35800895  0.35303175  1.0
  O  O6777  1  0.16465923  0.52467561  0.35303175  1.0
  O  O6778  1  0.16465923  0.69134228  0.35303175  1.0
  O  O6779  1  0.16465923  0.85800895  0.35303175  1.0
  O  O6780  1  0.24799256  0.02467561  0.35303175  1.0
  O  O6781  1  0.24799256  0.19134228  0.35303175  1.0
  O  O6782  1  0.24799256  0.35800895  0.35303175  1.0
  O  O6783  1  0.24799256  0.52467561  0.35303175  1.0
  O  O6784  1  0.24799256  0.69134228  0.35303175  1.0
  O  O6785  1  0.24799256  0.85800895  0.35303175  1.0
  O  O6786  1  0.33132590  0.02467561  0.35303175  1.0
  O  O6787  1  0.33132590  0.19134228  0.35303175  1.0
  O  O6788  1  0.33132590  0.35800895  0.35303175  1.0
  O  O6789  1  0.33132590  0.52467561  0.35303175  1.0
  O  O6790  1  0.33132590  0.69134228  0.35303175  1.0
  O  O6791  1  0.33132590  0.85800895  0.35303175  1.0
  O  O6792  1  0.41465923  0.02467561  0.35303175  1.0
  O  O6793  1  0.41465923  0.19134228  0.35303175  1.0
  O  O6794  1  0.41465923  0.35800895  0.35303175  1.0
  O  O6795  1  0.41465923  0.52467561  0.35303175  1.0
  O  O6796  1  0.41465923  0.69134228  0.35303175  1.0
  O  O6797  1  0.41465923  0.85800895  0.35303175  1.0
  O  O6798  1  0.49799256  0.02467561  0.35303175  1.0
  O  O6799  1  0.49799256  0.19134228  0.35303175  1.0
  O  O6800  1  0.49799256  0.35800895  0.35303175  1.0
  O  O6801  1  0.49799256  0.52467561  0.35303175  1.0
  O  O6802  1  0.49799256  0.69134228  0.35303175  1.0
  O  O6803  1  0.49799256  0.85800895  0.35303175  1.0
  O  O6804  1  0.58132590  0.02467561  0.35303175  1.0
  O  O6805  1  0.58132590  0.19134228  0.35303175  1.0
  O  O6806  1  0.58132590  0.35800895  0.35303175  1.0
  O  O6807  1  0.58132590  0.52467561  0.35303175  1.0
  O  O6808  1  0.58132590  0.69134228  0.35303175  1.0
  O  O6809  1  0.58132590  0.85800895  0.35303175  1.0
  O  O6810  1  0.66465923  0.02467561  0.35303175  1.0
  O  O6811  1  0.66465923  0.19134228  0.35303175  1.0
  O  O6812  1  0.66465923  0.35800895  0.35303175  1.0
  O  O6813  1  0.66465923  0.52467561  0.35303175  1.0
  O  O6814  1  0.66465923  0.69134228  0.35303175  1.0
  O  O6815  1  0.66465923  0.85800895  0.35303175  1.0
  O  O6816  1  0.74799256  0.02467561  0.35303175  1.0
  O  O6817  1  0.74799256  0.19134228  0.35303175  1.0
  O  O6818  1  0.74799256  0.35800895  0.35303175  1.0
  O  O6819  1  0.74799256  0.52467561  0.35303175  1.0
  O  O6820  1  0.74799256  0.69134228  0.35303175  1.0
  O  O6821  1  0.74799256  0.85800895  0.35303175  1.0
  O  O6822  1  0.83132590  0.02467561  0.35303175  1.0
  O  O6823  1  0.83132590  0.19134228  0.35303175  1.0
  O  O6824  1  0.83132590  0.35800895  0.35303175  1.0
  O  O6825  1  0.83132590  0.52467561  0.35303175  1.0
  O  O6826  1  0.83132590  0.69134228  0.35303175  1.0
  O  O6827  1  0.83132590  0.85800895  0.35303175  1.0
  O  O6828  1  0.91465923  0.02467561  0.35303175  1.0
  O  O6829  1  0.91465923  0.19134228  0.35303175  1.0
  O  O6830  1  0.91465923  0.35800895  0.35303175  1.0
  O  O6831  1  0.91465923  0.52467561  0.35303175  1.0
  O  O6832  1  0.91465923  0.69134228  0.35303175  1.0
  O  O6833  1  0.91465923  0.85800895  0.35303175  1.0
  O  O6834  1  0.99799256  0.02467561  0.35303175  1.0
  O  O6835  1  0.99799256  0.19134228  0.35303175  1.0
  O  O6836  1  0.99799256  0.35800895  0.35303175  1.0
  O  O6837  1  0.99799256  0.52467561  0.35303175  1.0
  O  O6838  1  0.99799256  0.69134228  0.35303175  1.0
  O  O6839  1  0.99799256  0.85800895  0.35303175  1.0
  O  O6840  1  0.02180209  0.03658037  0.28160318  1.0
  O  O6841  1  0.02180209  0.20324704  0.28160318  1.0
  O  O6842  1  0.02180209  0.36991371  0.28160318  1.0
  O  O6843  1  0.02180209  0.53658037  0.28160318  1.0
  O  O6844  1  0.02180209  0.70324704  0.28160318  1.0
  O  O6845  1  0.02180209  0.86991371  0.28160318  1.0
  O  O6846  1  0.10513542  0.03658037  0.28160318  1.0
  O  O6847  1  0.10513542  0.20324704  0.28160318  1.0
  O  O6848  1  0.10513542  0.36991371  0.28160318  1.0
  O  O6849  1  0.10513542  0.53658037  0.28160318  1.0
  O  O6850  1  0.10513542  0.70324704  0.28160318  1.0
  O  O6851  1  0.10513542  0.86991371  0.28160318  1.0
  O  O6852  1  0.18846875  0.03658037  0.28160318  1.0
  O  O6853  1  0.18846875  0.20324704  0.28160318  1.0
  O  O6854  1  0.18846875  0.36991371  0.28160318  1.0
  O  O6855  1  0.18846875  0.53658037  0.28160318  1.0
  O  O6856  1  0.18846875  0.70324704  0.28160318  1.0
  O  O6857  1  0.18846875  0.86991371  0.28160318  1.0
  O  O6858  1  0.27180209  0.03658037  0.28160318  1.0
  O  O6859  1  0.27180209  0.20324704  0.28160318  1.0
  O  O6860  1  0.27180209  0.36991371  0.28160318  1.0
  O  O6861  1  0.27180209  0.53658037  0.28160318  1.0
  O  O6862  1  0.27180209  0.70324704  0.28160318  1.0
  O  O6863  1  0.27180209  0.86991371  0.28160318  1.0
  O  O6864  1  0.35513542  0.03658037  0.28160318  1.0
  O  O6865  1  0.35513542  0.20324704  0.28160318  1.0
  O  O6866  1  0.35513542  0.36991371  0.28160318  1.0
  O  O6867  1  0.35513542  0.53658037  0.28160318  1.0
  O  O6868  1  0.35513542  0.70324704  0.28160318  1.0
  O  O6869  1  0.35513542  0.86991371  0.28160318  1.0
  O  O6870  1  0.43846875  0.03658037  0.28160318  1.0
  O  O6871  1  0.43846875  0.20324704  0.28160318  1.0
  O  O6872  1  0.43846875  0.36991371  0.28160318  1.0
  O  O6873  1  0.43846875  0.53658037  0.28160318  1.0
  O  O6874  1  0.43846875  0.70324704  0.28160318  1.0
  O  O6875  1  0.43846875  0.86991371  0.28160318  1.0
  O  O6876  1  0.52180209  0.03658037  0.28160318  1.0
  O  O6877  1  0.52180209  0.20324704  0.28160318  1.0
  O  O6878  1  0.52180209  0.36991371  0.28160318  1.0
  O  O6879  1  0.52180209  0.53658037  0.28160318  1.0
  O  O6880  1  0.52180209  0.70324704  0.28160318  1.0
  O  O6881  1  0.52180209  0.86991371  0.28160318  1.0
  O  O6882  1  0.60513542  0.03658037  0.28160318  1.0
  O  O6883  1  0.60513542  0.20324704  0.28160318  1.0
  O  O6884  1  0.60513542  0.36991371  0.28160318  1.0
  O  O6885  1  0.60513542  0.53658037  0.28160318  1.0
  O  O6886  1  0.60513542  0.70324704  0.28160318  1.0
  O  O6887  1  0.60513542  0.86991371  0.28160318  1.0
  O  O6888  1  0.68846875  0.03658037  0.28160318  1.0
  O  O6889  1  0.68846875  0.20324704  0.28160318  1.0
  O  O6890  1  0.68846875  0.36991371  0.28160318  1.0
  O  O6891  1  0.68846875  0.53658037  0.28160318  1.0
  O  O6892  1  0.68846875  0.70324704  0.28160318  1.0
  O  O6893  1  0.68846875  0.86991371  0.28160318  1.0
  O  O6894  1  0.77180209  0.03658037  0.28160318  1.0
  O  O6895  1  0.77180209  0.20324704  0.28160318  1.0
  O  O6896  1  0.77180209  0.36991371  0.28160318  1.0
  O  O6897  1  0.77180209  0.53658037  0.28160318  1.0
  O  O6898  1  0.77180209  0.70324704  0.28160318  1.0
  O  O6899  1  0.77180209  0.86991371  0.28160318  1.0
  O  O6900  1  0.85513542  0.03658037  0.28160318  1.0
  O  O6901  1  0.85513542  0.20324704  0.28160318  1.0
  O  O6902  1  0.85513542  0.36991371  0.28160318  1.0
  O  O6903  1  0.85513542  0.53658037  0.28160318  1.0
  O  O6904  1  0.85513542  0.70324704  0.28160318  1.0
  O  O6905  1  0.85513542  0.86991371  0.28160318  1.0
  O  O6906  1  0.93846875  0.03658037  0.28160318  1.0
  O  O6907  1  0.93846875  0.20324704  0.28160318  1.0
  O  O6908  1  0.93846875  0.36991371  0.28160318  1.0
  O  O6909  1  0.93846875  0.53658037  0.28160318  1.0
  O  O6910  1  0.93846875  0.70324704  0.28160318  1.0
  O  O6911  1  0.93846875  0.86991371  0.28160318  1.0
  O  O6912  1  0.04511077  0.12284099  0.33868530  1.0
  O  O6913  1  0.04511077  0.28950766  0.33868530  1.0
  O  O6914  1  0.04511077  0.45617432  0.33868530  1.0
  O  O6915  1  0.04511077  0.62284099  0.33868530  1.0
  O  O6916  1  0.04511077  0.78950766  0.33868530  1.0
  O  O6917  1  0.04511077  0.95617432  0.33868530  1.0
  O  O6918  1  0.12844410  0.12284099  0.33868530  1.0
  O  O6919  1  0.12844410  0.28950766  0.33868530  1.0
  O  O6920  1  0.12844410  0.45617432  0.33868530  1.0
  O  O6921  1  0.12844410  0.62284099  0.33868530  1.0
  O  O6922  1  0.12844410  0.78950766  0.33868530  1.0
  O  O6923  1  0.12844410  0.95617432  0.33868530  1.0
  O  O6924  1  0.21177743  0.12284099  0.33868530  1.0
  O  O6925  1  0.21177743  0.28950766  0.33868530  1.0
  O  O6926  1  0.21177743  0.45617432  0.33868530  1.0
  O  O6927  1  0.21177743  0.62284099  0.33868530  1.0
  O  O6928  1  0.21177743  0.78950766  0.33868530  1.0
  O  O6929  1  0.21177743  0.95617432  0.33868530  1.0
  O  O6930  1  0.29511077  0.12284099  0.33868530  1.0
  O  O6931  1  0.29511077  0.28950766  0.33868530  1.0
  O  O6932  1  0.29511077  0.45617432  0.33868530  1.0
  O  O6933  1  0.29511077  0.62284099  0.33868530  1.0
  O  O6934  1  0.29511077  0.78950766  0.33868530  1.0
  O  O6935  1  0.29511077  0.95617432  0.33868530  1.0
  O  O6936  1  0.37844410  0.12284099  0.33868530  1.0
  O  O6937  1  0.37844410  0.28950766  0.33868530  1.0
  O  O6938  1  0.37844410  0.45617432  0.33868530  1.0
  O  O6939  1  0.37844410  0.62284099  0.33868530  1.0
  O  O6940  1  0.37844410  0.78950766  0.33868530  1.0
  O  O6941  1  0.37844410  0.95617432  0.33868530  1.0
  O  O6942  1  0.46177743  0.12284099  0.33868530  1.0
  O  O6943  1  0.46177743  0.28950766  0.33868530  1.0
  O  O6944  1  0.46177743  0.45617432  0.33868530  1.0
  O  O6945  1  0.46177743  0.62284099  0.33868530  1.0
  O  O6946  1  0.46177743  0.78950766  0.33868530  1.0
  O  O6947  1  0.46177743  0.95617432  0.33868530  1.0
  O  O6948  1  0.54511077  0.12284099  0.33868530  1.0
  O  O6949  1  0.54511077  0.28950766  0.33868530  1.0
  O  O6950  1  0.54511077  0.45617432  0.33868530  1.0
  O  O6951  1  0.54511077  0.62284099  0.33868530  1.0
  O  O6952  1  0.54511077  0.78950766  0.33868530  1.0
  O  O6953  1  0.54511077  0.95617432  0.33868530  1.0
  O  O6954  1  0.62844410  0.12284099  0.33868530  1.0
  O  O6955  1  0.62844410  0.28950766  0.33868530  1.0
  O  O6956  1  0.62844410  0.45617432  0.33868530  1.0
  O  O6957  1  0.62844410  0.62284099  0.33868530  1.0
  O  O6958  1  0.62844410  0.78950766  0.33868530  1.0
  O  O6959  1  0.62844410  0.95617432  0.33868530  1.0
  O  O6960  1  0.71177743  0.12284099  0.33868530  1.0
  O  O6961  1  0.71177743  0.28950766  0.33868530  1.0
  O  O6962  1  0.71177743  0.45617432  0.33868530  1.0
  O  O6963  1  0.71177743  0.62284099  0.33868530  1.0
  O  O6964  1  0.71177743  0.78950766  0.33868530  1.0
  O  O6965  1  0.71177743  0.95617432  0.33868530  1.0
  O  O6966  1  0.79511077  0.12284099  0.33868530  1.0
  O  O6967  1  0.79511077  0.28950766  0.33868530  1.0
  O  O6968  1  0.79511077  0.45617432  0.33868530  1.0
  O  O6969  1  0.79511077  0.62284099  0.33868530  1.0
  O  O6970  1  0.79511077  0.78950766  0.33868530  1.0
  O  O6971  1  0.79511077  0.95617432  0.33868530  1.0
  O  O6972  1  0.87844410  0.12284099  0.33868530  1.0
  O  O6973  1  0.87844410  0.28950766  0.33868530  1.0
  O  O6974  1  0.87844410  0.45617432  0.33868530  1.0
  O  O6975  1  0.87844410  0.62284099  0.33868530  1.0
  O  O6976  1  0.87844410  0.78950766  0.33868530  1.0
  O  O6977  1  0.87844410  0.95617432  0.33868530  1.0
  O  O6978  1  0.96177743  0.12284099  0.33868530  1.0
  O  O6979  1  0.96177743  0.28950766  0.33868530  1.0
  O  O6980  1  0.96177743  0.45617432  0.33868530  1.0
  O  O6981  1  0.96177743  0.62284099  0.33868530  1.0
  O  O6982  1  0.96177743  0.78950766  0.33868530  1.0
  O  O6983  1  0.96177743  0.95617432  0.33868530  1.0
  O  O6984  1  0.06892029  0.13474575  0.26725673  1.0
  O  O6985  1  0.06892029  0.30141242  0.26725673  1.0
  O  O6986  1  0.06892029  0.46807909  0.26725673  1.0
  O  O6987  1  0.06892029  0.63474575  0.26725673  1.0
  O  O6988  1  0.06892029  0.80141242  0.26725673  1.0
  O  O6989  1  0.06892029  0.96807909  0.26725673  1.0
  O  O6990  1  0.15225362  0.13474575  0.26725673  1.0
  O  O6991  1  0.15225362  0.30141242  0.26725673  1.0
  O  O6992  1  0.15225362  0.46807909  0.26725673  1.0
  O  O6993  1  0.15225362  0.63474575  0.26725673  1.0
  O  O6994  1  0.15225362  0.80141242  0.26725673  1.0
  O  O6995  1  0.15225362  0.96807909  0.26725673  1.0
  O  O6996  1  0.23558696  0.13474575  0.26725673  1.0
  O  O6997  1  0.23558696  0.30141242  0.26725673  1.0
  O  O6998  1  0.23558696  0.46807909  0.26725673  1.0
  O  O6999  1  0.23558696  0.63474575  0.26725673  1.0
  O  O7000  1  0.23558696  0.80141242  0.26725673  1.0
  O  O7001  1  0.23558696  0.96807909  0.26725673  1.0
  O  O7002  1  0.31892029  0.13474575  0.26725673  1.0
  O  O7003  1  0.31892029  0.30141242  0.26725673  1.0
  O  O7004  1  0.31892029  0.46807909  0.26725673  1.0
  O  O7005  1  0.31892029  0.63474575  0.26725673  1.0
  O  O7006  1  0.31892029  0.80141242  0.26725673  1.0
  O  O7007  1  0.31892029  0.96807909  0.26725673  1.0
  O  O7008  1  0.40225362  0.13474575  0.26725673  1.0
  O  O7009  1  0.40225362  0.30141242  0.26725673  1.0
  O  O7010  1  0.40225362  0.46807909  0.26725673  1.0
  O  O7011  1  0.40225362  0.63474575  0.26725673  1.0
  O  O7012  1  0.40225362  0.80141242  0.26725673  1.0
  O  O7013  1  0.40225362  0.96807909  0.26725673  1.0
  O  O7014  1  0.48558696  0.13474575  0.26725673  1.0
  O  O7015  1  0.48558696  0.30141242  0.26725673  1.0
  O  O7016  1  0.48558696  0.46807909  0.26725673  1.0
  O  O7017  1  0.48558696  0.63474575  0.26725673  1.0
  O  O7018  1  0.48558696  0.80141242  0.26725673  1.0
  O  O7019  1  0.48558696  0.96807909  0.26725673  1.0
  O  O7020  1  0.56892029  0.13474575  0.26725673  1.0
  O  O7021  1  0.56892029  0.30141242  0.26725673  1.0
  O  O7022  1  0.56892029  0.46807909  0.26725673  1.0
  O  O7023  1  0.56892029  0.63474575  0.26725673  1.0
  O  O7024  1  0.56892029  0.80141242  0.26725673  1.0
  O  O7025  1  0.56892029  0.96807909  0.26725673  1.0
  O  O7026  1  0.65225362  0.13474575  0.26725673  1.0
  O  O7027  1  0.65225362  0.30141242  0.26725673  1.0
  O  O7028  1  0.65225362  0.46807909  0.26725673  1.0
  O  O7029  1  0.65225362  0.63474575  0.26725673  1.0
  O  O7030  1  0.65225362  0.80141242  0.26725673  1.0
  O  O7031  1  0.65225362  0.96807909  0.26725673  1.0
  O  O7032  1  0.73558696  0.13474575  0.26725673  1.0
  O  O7033  1  0.73558696  0.30141242  0.26725673  1.0
  O  O7034  1  0.73558696  0.46807909  0.26725673  1.0
  O  O7035  1  0.73558696  0.63474575  0.26725673  1.0
  O  O7036  1  0.73558696  0.80141242  0.26725673  1.0
  O  O7037  1  0.73558696  0.96807909  0.26725673  1.0
  O  O7038  1  0.81892029  0.13474575  0.26725673  1.0
  O  O7039  1  0.81892029  0.30141242  0.26725673  1.0
  O  O7040  1  0.81892029  0.46807909  0.26725673  1.0
  O  O7041  1  0.81892029  0.63474575  0.26725673  1.0
  O  O7042  1  0.81892029  0.80141242  0.26725673  1.0
  O  O7043  1  0.81892029  0.96807909  0.26725673  1.0
  O  O7044  1  0.90225362  0.13474575  0.26725673  1.0
  O  O7045  1  0.90225362  0.30141242  0.26725673  1.0
  O  O7046  1  0.90225362  0.46807909  0.26725673  1.0
  O  O7047  1  0.90225362  0.63474575  0.26725673  1.0
  O  O7048  1  0.90225362  0.80141242  0.26725673  1.0
  O  O7049  1  0.90225362  0.96807909  0.26725673  1.0
  O  O7050  1  0.98558696  0.13474575  0.26725673  1.0
  O  O7051  1  0.98558696  0.30141242  0.26725673  1.0
  O  O7052  1  0.98558696  0.46807909  0.26725673  1.0
  O  O7053  1  0.98558696  0.63474575  0.26725673  1.0
  O  O7054  1  0.98558696  0.80141242  0.26725673  1.0
  O  O7055  1  0.98558696  0.96807909  0.26725673  1.0
  O  O7056  1  0.00399138  0.14500859  0.34206506  1.0
  O  O7057  1  0.00399138  0.31167526  0.34206506  1.0
  O  O7058  1  0.00399138  0.47834192  0.34206506  1.0
  O  O7059  1  0.00399138  0.64500859  0.34206506  1.0
  O  O7060  1  0.00399138  0.81167526  0.34206506  1.0
  O  O7061  1  0.00399138  0.97834192  0.34206506  1.0
  O  O7062  1  0.08732471  0.14500859  0.34206506  1.0
  O  O7063  1  0.08732471  0.31167526  0.34206506  1.0
  O  O7064  1  0.08732471  0.47834192  0.34206506  1.0
  O  O7065  1  0.08732471  0.64500859  0.34206506  1.0
  O  O7066  1  0.08732471  0.81167526  0.34206506  1.0
  O  O7067  1  0.08732471  0.97834192  0.34206506  1.0
  O  O7068  1  0.17065805  0.14500859  0.34206506  1.0
  O  O7069  1  0.17065805  0.31167526  0.34206506  1.0
  O  O7070  1  0.17065805  0.47834192  0.34206506  1.0
  O  O7071  1  0.17065805  0.64500859  0.34206506  1.0
  O  O7072  1  0.17065805  0.81167526  0.34206506  1.0
  O  O7073  1  0.17065805  0.97834192  0.34206506  1.0
  O  O7074  1  0.25399138  0.14500859  0.34206506  1.0
  O  O7075  1  0.25399138  0.31167526  0.34206506  1.0
  O  O7076  1  0.25399138  0.47834192  0.34206506  1.0
  O  O7077  1  0.25399138  0.64500859  0.34206506  1.0
  O  O7078  1  0.25399138  0.81167526  0.34206506  1.0
  O  O7079  1  0.25399138  0.97834192  0.34206506  1.0
  O  O7080  1  0.33732471  0.14500859  0.34206506  1.0
  O  O7081  1  0.33732471  0.31167526  0.34206506  1.0
  O  O7082  1  0.33732471  0.47834192  0.34206506  1.0
  O  O7083  1  0.33732471  0.64500859  0.34206506  1.0
  O  O7084  1  0.33732471  0.81167526  0.34206506  1.0
  O  O7085  1  0.33732471  0.97834192  0.34206506  1.0
  O  O7086  1  0.42065805  0.14500859  0.34206506  1.0
  O  O7087  1  0.42065805  0.31167526  0.34206506  1.0
  O  O7088  1  0.42065805  0.47834192  0.34206506  1.0
  O  O7089  1  0.42065805  0.64500859  0.34206506  1.0
  O  O7090  1  0.42065805  0.81167526  0.34206506  1.0
  O  O7091  1  0.42065805  0.97834192  0.34206506  1.0
  O  O7092  1  0.50399138  0.14500859  0.34206506  1.0
  O  O7093  1  0.50399138  0.31167526  0.34206506  1.0
  O  O7094  1  0.50399138  0.47834192  0.34206506  1.0
  O  O7095  1  0.50399138  0.64500859  0.34206506  1.0
  O  O7096  1  0.50399138  0.81167526  0.34206506  1.0
  O  O7097  1  0.50399138  0.97834192  0.34206506  1.0
  O  O7098  1  0.58732471  0.14500859  0.34206506  1.0
  O  O7099  1  0.58732471  0.31167526  0.34206506  1.0
  O  O7100  1  0.58732471  0.47834192  0.34206506  1.0
  O  O7101  1  0.58732471  0.64500859  0.34206506  1.0
  O  O7102  1  0.58732471  0.81167526  0.34206506  1.0
  O  O7103  1  0.58732471  0.97834192  0.34206506  1.0
  O  O7104  1  0.67065805  0.14500859  0.34206506  1.0
  O  O7105  1  0.67065805  0.31167526  0.34206506  1.0
  O  O7106  1  0.67065805  0.47834192  0.34206506  1.0
  O  O7107  1  0.67065805  0.64500859  0.34206506  1.0
  O  O7108  1  0.67065805  0.81167526  0.34206506  1.0
  O  O7109  1  0.67065805  0.97834192  0.34206506  1.0
  O  O7110  1  0.75399138  0.14500859  0.34206506  1.0
  O  O7111  1  0.75399138  0.31167526  0.34206506  1.0
  O  O7112  1  0.75399138  0.47834192  0.34206506  1.0
  O  O7113  1  0.75399138  0.64500859  0.34206506  1.0
  O  O7114  1  0.75399138  0.81167526  0.34206506  1.0
  O  O7115  1  0.75399138  0.97834192  0.34206506  1.0
  O  O7116  1  0.83732471  0.14500859  0.34206506  1.0
  O  O7117  1  0.83732471  0.31167526  0.34206506  1.0
  O  O7118  1  0.83732471  0.47834192  0.34206506  1.0
  O  O7119  1  0.83732471  0.64500859  0.34206506  1.0
  O  O7120  1  0.83732471  0.81167526  0.34206506  1.0
  O  O7121  1  0.83732471  0.97834192  0.34206506  1.0
  O  O7122  1  0.92065805  0.14500859  0.34206506  1.0
  O  O7123  1  0.92065805  0.31167526  0.34206506  1.0
  O  O7124  1  0.92065805  0.47834192  0.34206506  1.0
  O  O7125  1  0.92065805  0.64500859  0.34206506  1.0
  O  O7126  1  0.92065805  0.81167526  0.34206506  1.0
  O  O7127  1  0.92065805  0.97834192  0.34206506  1.0
  O  O7128  1  0.02780090  0.15691335  0.27063649  1.0
  O  O7129  1  0.02780090  0.32358002  0.27063649  1.0
  O  O7130  1  0.02780090  0.49024668  0.27063649  1.0
  O  O7131  1  0.02780090  0.65691335  0.27063649  1.0
  O  O7132  1  0.02780090  0.82358002  0.27063649  1.0
  O  O7133  1  0.02780090  0.99024668  0.27063649  1.0
  O  O7134  1  0.11113424  0.15691335  0.27063649  1.0
  O  O7135  1  0.11113424  0.32358002  0.27063649  1.0
  O  O7136  1  0.11113424  0.49024668  0.27063649  1.0
  O  O7137  1  0.11113424  0.65691335  0.27063649  1.0
  O  O7138  1  0.11113424  0.82358002  0.27063649  1.0
  O  O7139  1  0.11113424  0.99024668  0.27063649  1.0
  O  O7140  1  0.19446757  0.15691335  0.27063649  1.0
  O  O7141  1  0.19446757  0.32358002  0.27063649  1.0
  O  O7142  1  0.19446757  0.49024668  0.27063649  1.0
  O  O7143  1  0.19446757  0.65691335  0.27063649  1.0
  O  O7144  1  0.19446757  0.82358002  0.27063649  1.0
  O  O7145  1  0.19446757  0.99024668  0.27063649  1.0
  O  O7146  1  0.27780090  0.15691335  0.27063649  1.0
  O  O7147  1  0.27780090  0.32358002  0.27063649  1.0
  O  O7148  1  0.27780090  0.49024668  0.27063649  1.0
  O  O7149  1  0.27780090  0.65691335  0.27063649  1.0
  O  O7150  1  0.27780090  0.82358002  0.27063649  1.0
  O  O7151  1  0.27780090  0.99024668  0.27063649  1.0
  O  O7152  1  0.36113424  0.15691335  0.27063649  1.0
  O  O7153  1  0.36113424  0.32358002  0.27063649  1.0
  O  O7154  1  0.36113424  0.49024668  0.27063649  1.0
  O  O7155  1  0.36113424  0.65691335  0.27063649  1.0
  O  O7156  1  0.36113424  0.82358002  0.27063649  1.0
  O  O7157  1  0.36113424  0.99024668  0.27063649  1.0
  O  O7158  1  0.44446757  0.15691335  0.27063649  1.0
  O  O7159  1  0.44446757  0.32358002  0.27063649  1.0
  O  O7160  1  0.44446757  0.49024668  0.27063649  1.0
  O  O7161  1  0.44446757  0.65691335  0.27063649  1.0
  O  O7162  1  0.44446757  0.82358002  0.27063649  1.0
  O  O7163  1  0.44446757  0.99024668  0.27063649  1.0
  O  O7164  1  0.52780090  0.15691335  0.27063649  1.0
  O  O7165  1  0.52780090  0.32358002  0.27063649  1.0
  O  O7166  1  0.52780090  0.49024668  0.27063649  1.0
  O  O7167  1  0.52780090  0.65691335  0.27063649  1.0
  O  O7168  1  0.52780090  0.82358002  0.27063649  1.0
  O  O7169  1  0.52780090  0.99024668  0.27063649  1.0
  O  O7170  1  0.61113424  0.15691335  0.27063649  1.0
  O  O7171  1  0.61113424  0.32358002  0.27063649  1.0
  O  O7172  1  0.61113424  0.49024668  0.27063649  1.0
  O  O7173  1  0.61113424  0.65691335  0.27063649  1.0
  O  O7174  1  0.61113424  0.82358002  0.27063649  1.0
  O  O7175  1  0.61113424  0.99024668  0.27063649  1.0
  O  O7176  1  0.69446757  0.15691335  0.27063649  1.0
  O  O7177  1  0.69446757  0.32358002  0.27063649  1.0
  O  O7178  1  0.69446757  0.49024668  0.27063649  1.0
  O  O7179  1  0.69446757  0.65691335  0.27063649  1.0
  O  O7180  1  0.69446757  0.82358002  0.27063649  1.0
  O  O7181  1  0.69446757  0.99024668  0.27063649  1.0
  O  O7182  1  0.77780090  0.15691335  0.27063649  1.0
  O  O7183  1  0.77780090  0.32358002  0.27063649  1.0
  O  O7184  1  0.77780090  0.49024668  0.27063649  1.0
  O  O7185  1  0.77780090  0.65691335  0.27063649  1.0
  O  O7186  1  0.77780090  0.82358002  0.27063649  1.0
  O  O7187  1  0.77780090  0.99024668  0.27063649  1.0
  O  O7188  1  0.86113424  0.15691335  0.27063649  1.0
  O  O7189  1  0.86113424  0.32358002  0.27063649  1.0
  O  O7190  1  0.86113424  0.49024668  0.27063649  1.0
  O  O7191  1  0.86113424  0.65691335  0.27063649  1.0
  O  O7192  1  0.86113424  0.82358002  0.27063649  1.0
  O  O7193  1  0.86113424  0.99024668  0.27063649  1.0
  O  O7194  1  0.94446757  0.15691335  0.27063649  1.0
  O  O7195  1  0.94446757  0.32358002  0.27063649  1.0
  O  O7196  1  0.94446757  0.49024668  0.27063649  1.0
  O  O7197  1  0.94446757  0.65691335  0.27063649  1.0
  O  O7198  1  0.94446757  0.82358002  0.27063649  1.0
  O  O7199  1  0.94446757  0.99024668  0.27063649  1.0
  O  O7200  1  0.01751119  0.08138876  0.29233553  1.0
  O  O7201  1  0.01751119  0.24805542  0.29233553  1.0
  O  O7202  1  0.01751119  0.41472209  0.29233553  1.0
  O  O7203  1  0.01751119  0.58138876  0.29233553  1.0
  O  O7204  1  0.01751119  0.74805542  0.29233553  1.0
  O  O7205  1  0.01751119  0.91472209  0.29233553  1.0
  O  O7206  1  0.10084452  0.08138876  0.29233553  1.0
  O  O7207  1  0.10084452  0.24805542  0.29233553  1.0
  O  O7208  1  0.10084452  0.41472209  0.29233553  1.0
  O  O7209  1  0.10084452  0.58138876  0.29233553  1.0
  O  O7210  1  0.10084452  0.74805542  0.29233553  1.0
  O  O7211  1  0.10084452  0.91472209  0.29233553  1.0
  O  O7212  1  0.18417785  0.08138876  0.29233553  1.0
  O  O7213  1  0.18417785  0.24805542  0.29233553  1.0
  O  O7214  1  0.18417785  0.41472209  0.29233553  1.0
  O  O7215  1  0.18417785  0.58138876  0.29233553  1.0
  O  O7216  1  0.18417785  0.74805542  0.29233553  1.0
  O  O7217  1  0.18417785  0.91472209  0.29233553  1.0
  O  O7218  1  0.26751119  0.08138876  0.29233553  1.0
  O  O7219  1  0.26751119  0.24805542  0.29233553  1.0
  O  O7220  1  0.26751119  0.41472209  0.29233553  1.0
  O  O7221  1  0.26751119  0.58138876  0.29233553  1.0
  O  O7222  1  0.26751119  0.74805542  0.29233553  1.0
  O  O7223  1  0.26751119  0.91472209  0.29233553  1.0
  O  O7224  1  0.35084452  0.08138876  0.29233553  1.0
  O  O7225  1  0.35084452  0.24805542  0.29233553  1.0
  O  O7226  1  0.35084452  0.41472209  0.29233553  1.0
  O  O7227  1  0.35084452  0.58138876  0.29233553  1.0
  O  O7228  1  0.35084452  0.74805542  0.29233553  1.0
  O  O7229  1  0.35084452  0.91472209  0.29233553  1.0
  O  O7230  1  0.43417785  0.08138876  0.29233553  1.0
  O  O7231  1  0.43417785  0.24805542  0.29233553  1.0
  O  O7232  1  0.43417785  0.41472209  0.29233553  1.0
  O  O7233  1  0.43417785  0.58138876  0.29233553  1.0
  O  O7234  1  0.43417785  0.74805542  0.29233553  1.0
  O  O7235  1  0.43417785  0.91472209  0.29233553  1.0
  O  O7236  1  0.51751119  0.08138876  0.29233553  1.0
  O  O7237  1  0.51751119  0.24805542  0.29233553  1.0
  O  O7238  1  0.51751119  0.41472209  0.29233553  1.0
  O  O7239  1  0.51751119  0.58138876  0.29233553  1.0
  O  O7240  1  0.51751119  0.74805542  0.29233553  1.0
  O  O7241  1  0.51751119  0.91472209  0.29233553  1.0
  O  O7242  1  0.60084452  0.08138876  0.29233553  1.0
  O  O7243  1  0.60084452  0.24805542  0.29233553  1.0
  O  O7244  1  0.60084452  0.41472209  0.29233553  1.0
  O  O7245  1  0.60084452  0.58138876  0.29233553  1.0
  O  O7246  1  0.60084452  0.74805542  0.29233553  1.0
  O  O7247  1  0.60084452  0.91472209  0.29233553  1.0
  O  O7248  1  0.68417785  0.08138876  0.29233553  1.0
  O  O7249  1  0.68417785  0.24805542  0.29233553  1.0
  O  O7250  1  0.68417785  0.41472209  0.29233553  1.0
  O  O7251  1  0.68417785  0.58138876  0.29233553  1.0
  O  O7252  1  0.68417785  0.74805542  0.29233553  1.0
  O  O7253  1  0.68417785  0.91472209  0.29233553  1.0
  O  O7254  1  0.76751119  0.08138876  0.29233553  1.0
  O  O7255  1  0.76751119  0.24805542  0.29233553  1.0
  O  O7256  1  0.76751119  0.41472209  0.29233553  1.0
  O  O7257  1  0.76751119  0.58138876  0.29233553  1.0
  O  O7258  1  0.76751119  0.74805542  0.29233553  1.0
  O  O7259  1  0.76751119  0.91472209  0.29233553  1.0
  O  O7260  1  0.85084452  0.08138876  0.29233553  1.0
  O  O7261  1  0.85084452  0.24805542  0.29233553  1.0
  O  O7262  1  0.85084452  0.41472209  0.29233553  1.0
  O  O7263  1  0.85084452  0.58138876  0.29233553  1.0
  O  O7264  1  0.85084452  0.74805542  0.29233553  1.0
  O  O7265  1  0.85084452  0.91472209  0.29233553  1.0
  O  O7266  1  0.93417785  0.08138876  0.29233553  1.0
  O  O7267  1  0.93417785  0.24805542  0.29233553  1.0
  O  O7268  1  0.93417785  0.41472209  0.29233553  1.0
  O  O7269  1  0.93417785  0.58138876  0.29233553  1.0
  O  O7270  1  0.93417785  0.74805542  0.29233553  1.0
  O  O7271  1  0.93417785  0.91472209  0.29233553  1.0
  O  O7272  1  0.04554888  0.07585548  0.32815717  1.0
  O  O7273  1  0.04554888  0.24252214  0.32815717  1.0
  O  O7274  1  0.04554888  0.40918881  0.32815717  1.0
  O  O7275  1  0.04554888  0.57585548  0.32815717  1.0
  O  O7276  1  0.04554888  0.74252214  0.32815717  1.0
  O  O7277  1  0.04554888  0.90918881  0.32815717  1.0
  O  O7278  1  0.12888222  0.07585548  0.32815717  1.0
  O  O7279  1  0.12888222  0.24252214  0.32815717  1.0
  O  O7280  1  0.12888222  0.40918881  0.32815717  1.0
  O  O7281  1  0.12888222  0.57585548  0.32815717  1.0
  O  O7282  1  0.12888222  0.74252214  0.32815717  1.0
  O  O7283  1  0.12888222  0.90918881  0.32815717  1.0
  O  O7284  1  0.21221555  0.07585548  0.32815717  1.0
  O  O7285  1  0.21221555  0.24252214  0.32815717  1.0
  O  O7286  1  0.21221555  0.40918881  0.32815717  1.0
  O  O7287  1  0.21221555  0.57585548  0.32815717  1.0
  O  O7288  1  0.21221555  0.74252214  0.32815717  1.0
  O  O7289  1  0.21221555  0.90918881  0.32815717  1.0
  O  O7290  1  0.29554888  0.07585548  0.32815717  1.0
  O  O7291  1  0.29554888  0.24252214  0.32815717  1.0
  O  O7292  1  0.29554888  0.40918881  0.32815717  1.0
  O  O7293  1  0.29554888  0.57585548  0.32815717  1.0
  O  O7294  1  0.29554888  0.74252214  0.32815717  1.0
  O  O7295  1  0.29554888  0.90918881  0.32815717  1.0
  O  O7296  1  0.37888222  0.07585548  0.32815717  1.0
  O  O7297  1  0.37888222  0.24252214  0.32815717  1.0
  O  O7298  1  0.37888222  0.40918881  0.32815717  1.0
  O  O7299  1  0.37888222  0.57585548  0.32815717  1.0
  O  O7300  1  0.37888222  0.74252214  0.32815717  1.0
  O  O7301  1  0.37888222  0.90918881  0.32815717  1.0
  O  O7302  1  0.46221555  0.07585548  0.32815717  1.0
  O  O7303  1  0.46221555  0.24252214  0.32815717  1.0
  O  O7304  1  0.46221555  0.40918881  0.32815717  1.0
  O  O7305  1  0.46221555  0.57585548  0.32815717  1.0
  O  O7306  1  0.46221555  0.74252214  0.32815717  1.0
  O  O7307  1  0.46221555  0.90918881  0.32815717  1.0
  O  O7308  1  0.54554888  0.07585548  0.32815717  1.0
  O  O7309  1  0.54554888  0.24252214  0.32815717  1.0
  O  O7310  1  0.54554888  0.40918881  0.32815717  1.0
  O  O7311  1  0.54554888  0.57585548  0.32815717  1.0
  O  O7312  1  0.54554888  0.74252214  0.32815717  1.0
  O  O7313  1  0.54554888  0.90918881  0.32815717  1.0
  O  O7314  1  0.62888222  0.07585548  0.32815717  1.0
  O  O7315  1  0.62888222  0.24252214  0.32815717  1.0
  O  O7316  1  0.62888222  0.40918881  0.32815717  1.0
  O  O7317  1  0.62888222  0.57585548  0.32815717  1.0
  O  O7318  1  0.62888222  0.74252214  0.32815717  1.0
  O  O7319  1  0.62888222  0.90918881  0.32815717  1.0
  O  O7320  1  0.71221555  0.07585548  0.32815717  1.0
  O  O7321  1  0.71221555  0.24252214  0.32815717  1.0
  O  O7322  1  0.71221555  0.40918881  0.32815717  1.0
  O  O7323  1  0.71221555  0.57585548  0.32815717  1.0
  O  O7324  1  0.71221555  0.74252214  0.32815717  1.0
  O  O7325  1  0.71221555  0.90918881  0.32815717  1.0
  O  O7326  1  0.79554888  0.07585548  0.32815717  1.0
  O  O7327  1  0.79554888  0.24252214  0.32815717  1.0
  O  O7328  1  0.79554888  0.40918881  0.32815717  1.0
  O  O7329  1  0.79554888  0.57585548  0.32815717  1.0
  O  O7330  1  0.79554888  0.74252214  0.32815717  1.0
  O  O7331  1  0.79554888  0.90918881  0.32815717  1.0
  O  O7332  1  0.87888222  0.07585548  0.32815717  1.0
  O  O7333  1  0.87888222  0.24252214  0.32815717  1.0
  O  O7334  1  0.87888222  0.40918881  0.32815717  1.0
  O  O7335  1  0.87888222  0.57585548  0.32815717  1.0
  O  O7336  1  0.87888222  0.74252214  0.32815717  1.0
  O  O7337  1  0.87888222  0.90918881  0.32815717  1.0
  O  O7338  1  0.96221555  0.07585548  0.32815717  1.0
  O  O7339  1  0.96221555  0.24252214  0.32815717  1.0
  O  O7340  1  0.96221555  0.40918881  0.32815717  1.0
  O  O7341  1  0.96221555  0.57585548  0.32815717  1.0
  O  O7342  1  0.96221555  0.74252214  0.32815717  1.0
  O  O7343  1  0.96221555  0.90918881  0.32815717  1.0
  O  O7344  1  0.06935841  0.08776024  0.25672860  1.0
  O  O7345  1  0.06935841  0.25442690  0.25672860  1.0
  O  O7346  1  0.06935841  0.42109357  0.25672860  1.0
  O  O7347  1  0.06935841  0.58776024  0.25672860  1.0
  O  O7348  1  0.06935841  0.75442690  0.25672860  1.0
  O  O7349  1  0.06935841  0.92109357  0.25672860  1.0
  O  O7350  1  0.15269174  0.08776024  0.25672860  1.0
  O  O7351  1  0.15269174  0.25442690  0.25672860  1.0
  O  O7352  1  0.15269174  0.42109357  0.25672860  1.0
  O  O7353  1  0.15269174  0.58776024  0.25672860  1.0
  O  O7354  1  0.15269174  0.75442690  0.25672860  1.0
  O  O7355  1  0.15269174  0.92109357  0.25672860  1.0
  O  O7356  1  0.23602508  0.08776024  0.25672860  1.0
  O  O7357  1  0.23602508  0.25442690  0.25672860  1.0
  O  O7358  1  0.23602508  0.42109357  0.25672860  1.0
  O  O7359  1  0.23602508  0.58776024  0.25672860  1.0
  O  O7360  1  0.23602508  0.75442690  0.25672860  1.0
  O  O7361  1  0.23602508  0.92109357  0.25672860  1.0
  O  O7362  1  0.31935841  0.08776024  0.25672860  1.0
  O  O7363  1  0.31935841  0.25442690  0.25672860  1.0
  O  O7364  1  0.31935841  0.42109357  0.25672860  1.0
  O  O7365  1  0.31935841  0.58776024  0.25672860  1.0
  O  O7366  1  0.31935841  0.75442690  0.25672860  1.0
  O  O7367  1  0.31935841  0.92109357  0.25672860  1.0
  O  O7368  1  0.40269174  0.08776024  0.25672860  1.0
  O  O7369  1  0.40269174  0.25442690  0.25672860  1.0
  O  O7370  1  0.40269174  0.42109357  0.25672860  1.0
  O  O7371  1  0.40269174  0.58776024  0.25672860  1.0
  O  O7372  1  0.40269174  0.75442690  0.25672860  1.0
  O  O7373  1  0.40269174  0.92109357  0.25672860  1.0
  O  O7374  1  0.48602508  0.08776024  0.25672860  1.0
  O  O7375  1  0.48602508  0.25442690  0.25672860  1.0
  O  O7376  1  0.48602508  0.42109357  0.25672860  1.0
  O  O7377  1  0.48602508  0.58776024  0.25672860  1.0
  O  O7378  1  0.48602508  0.75442690  0.25672860  1.0
  O  O7379  1  0.48602508  0.92109357  0.25672860  1.0
  O  O7380  1  0.56935841  0.08776024  0.25672860  1.0
  O  O7381  1  0.56935841  0.25442690  0.25672860  1.0
  O  O7382  1  0.56935841  0.42109357  0.25672860  1.0
  O  O7383  1  0.56935841  0.58776024  0.25672860  1.0
  O  O7384  1  0.56935841  0.75442690  0.25672860  1.0
  O  O7385  1  0.56935841  0.92109357  0.25672860  1.0
  O  O7386  1  0.65269174  0.08776024  0.25672860  1.0
  O  O7387  1  0.65269174  0.25442690  0.25672860  1.0
  O  O7388  1  0.65269174  0.42109357  0.25672860  1.0
  O  O7389  1  0.65269174  0.58776024  0.25672860  1.0
  O  O7390  1  0.65269174  0.75442690  0.25672860  1.0
  O  O7391  1  0.65269174  0.92109357  0.25672860  1.0
  O  O7392  1  0.73602508  0.08776024  0.25672860  1.0
  O  O7393  1  0.73602508  0.25442690  0.25672860  1.0
  O  O7394  1  0.73602508  0.42109357  0.25672860  1.0
  O  O7395  1  0.73602508  0.58776024  0.25672860  1.0
  O  O7396  1  0.73602508  0.75442690  0.25672860  1.0
  O  O7397  1  0.73602508  0.92109357  0.25672860  1.0
  O  O7398  1  0.81935841  0.08776024  0.25672860  1.0
  O  O7399  1  0.81935841  0.25442690  0.25672860  1.0
  O  O7400  1  0.81935841  0.42109357  0.25672860  1.0
  O  O7401  1  0.81935841  0.58776024  0.25672860  1.0
  O  O7402  1  0.81935841  0.75442690  0.25672860  1.0
  O  O7403  1  0.81935841  0.92109357  0.25672860  1.0
  O  O7404  1  0.90269174  0.08776024  0.25672860  1.0
  O  O7405  1  0.90269174  0.25442690  0.25672860  1.0
  O  O7406  1  0.90269174  0.42109357  0.25672860  1.0
  O  O7407  1  0.90269174  0.58776024  0.25672860  1.0
  O  O7408  1  0.90269174  0.75442690  0.25672860  1.0
  O  O7409  1  0.90269174  0.92109357  0.25672860  1.0
  O  O7410  1  0.98602508  0.08776024  0.25672860  1.0
  O  O7411  1  0.98602508  0.25442690  0.25672860  1.0
  O  O7412  1  0.98602508  0.42109357  0.25672860  1.0
  O  O7413  1  0.98602508  0.58776024  0.25672860  1.0
  O  O7414  1  0.98602508  0.75442690  0.25672860  1.0
  O  O7415  1  0.98602508  0.92109357  0.25672860  1.0
  O  O7416  1  0.01416136  0.12732987  0.30071289  1.0
  O  O7417  1  0.01416136  0.29399653  0.30071289  1.0
  O  O7418  1  0.01416136  0.46066320  0.30071289  1.0
  O  O7419  1  0.01416136  0.62732987  0.30071289  1.0
  O  O7420  1  0.01416136  0.79399653  0.30071289  1.0
  O  O7421  1  0.01416136  0.96066320  0.30071289  1.0
  O  O7422  1  0.09749469  0.12732987  0.30071289  1.0
  O  O7423  1  0.09749469  0.29399653  0.30071289  1.0
  O  O7424  1  0.09749469  0.46066320  0.30071289  1.0
  O  O7425  1  0.09749469  0.62732987  0.30071289  1.0
  O  O7426  1  0.09749469  0.79399653  0.30071289  1.0
  O  O7427  1  0.09749469  0.96066320  0.30071289  1.0
  O  O7428  1  0.18082802  0.12732987  0.30071289  1.0
  O  O7429  1  0.18082802  0.29399653  0.30071289  1.0
  O  O7430  1  0.18082802  0.46066320  0.30071289  1.0
  O  O7431  1  0.18082802  0.62732987  0.30071289  1.0
  O  O7432  1  0.18082802  0.79399653  0.30071289  1.0
  O  O7433  1  0.18082802  0.96066320  0.30071289  1.0
  O  O7434  1  0.26416136  0.12732987  0.30071289  1.0
  O  O7435  1  0.26416136  0.29399653  0.30071289  1.0
  O  O7436  1  0.26416136  0.46066320  0.30071289  1.0
  O  O7437  1  0.26416136  0.62732987  0.30071289  1.0
  O  O7438  1  0.26416136  0.79399653  0.30071289  1.0
  O  O7439  1  0.26416136  0.96066320  0.30071289  1.0
  O  O7440  1  0.34749469  0.12732987  0.30071289  1.0
  O  O7441  1  0.34749469  0.29399653  0.30071289  1.0
  O  O7442  1  0.34749469  0.46066320  0.30071289  1.0
  O  O7443  1  0.34749469  0.62732987  0.30071289  1.0
  O  O7444  1  0.34749469  0.79399653  0.30071289  1.0
  O  O7445  1  0.34749469  0.96066320  0.30071289  1.0
  O  O7446  1  0.43082802  0.12732987  0.30071289  1.0
  O  O7447  1  0.43082802  0.29399653  0.30071289  1.0
  O  O7448  1  0.43082802  0.46066320  0.30071289  1.0
  O  O7449  1  0.43082802  0.62732987  0.30071289  1.0
  O  O7450  1  0.43082802  0.79399653  0.30071289  1.0
  O  O7451  1  0.43082802  0.96066320  0.30071289  1.0
  O  O7452  1  0.51416136  0.12732987  0.30071289  1.0
  O  O7453  1  0.51416136  0.29399653  0.30071289  1.0
  O  O7454  1  0.51416136  0.46066320  0.30071289  1.0
  O  O7455  1  0.51416136  0.62732987  0.30071289  1.0
  O  O7456  1  0.51416136  0.79399653  0.30071289  1.0
  O  O7457  1  0.51416136  0.96066320  0.30071289  1.0
  O  O7458  1  0.59749469  0.12732987  0.30071289  1.0
  O  O7459  1  0.59749469  0.29399653  0.30071289  1.0
  O  O7460  1  0.59749469  0.46066320  0.30071289  1.0
  O  O7461  1  0.59749469  0.62732987  0.30071289  1.0
  O  O7462  1  0.59749469  0.79399653  0.30071289  1.0
  O  O7463  1  0.59749469  0.96066320  0.30071289  1.0
  O  O7464  1  0.68082802  0.12732987  0.30071289  1.0
  O  O7465  1  0.68082802  0.29399653  0.30071289  1.0
  O  O7466  1  0.68082802  0.46066320  0.30071289  1.0
  O  O7467  1  0.68082802  0.62732987  0.30071289  1.0
  O  O7468  1  0.68082802  0.79399653  0.30071289  1.0
  O  O7469  1  0.68082802  0.96066320  0.30071289  1.0
  O  O7470  1  0.76416136  0.12732987  0.30071289  1.0
  O  O7471  1  0.76416136  0.29399653  0.30071289  1.0
  O  O7472  1  0.76416136  0.46066320  0.30071289  1.0
  O  O7473  1  0.76416136  0.62732987  0.30071289  1.0
  O  O7474  1  0.76416136  0.79399653  0.30071289  1.0
  O  O7475  1  0.76416136  0.96066320  0.30071289  1.0
  O  O7476  1  0.84749469  0.12732987  0.30071289  1.0
  O  O7477  1  0.84749469  0.29399653  0.30071289  1.0
  O  O7478  1  0.84749469  0.46066320  0.30071289  1.0
  O  O7479  1  0.84749469  0.62732987  0.30071289  1.0
  O  O7480  1  0.84749469  0.79399653  0.30071289  1.0
  O  O7481  1  0.84749469  0.96066320  0.30071289  1.0
  O  O7482  1  0.93082802  0.12732987  0.30071289  1.0
  O  O7483  1  0.93082802  0.29399653  0.30071289  1.0
  O  O7484  1  0.93082802  0.46066320  0.30071289  1.0
  O  O7485  1  0.93082802  0.62732987  0.30071289  1.0
  O  O7486  1  0.93082802  0.79399653  0.30071289  1.0
  O  O7487  1  0.93082802  0.96066320  0.30071289  1.0
  O  O7488  1  0.00449046  0.09810562  0.33154366  1.0
  O  O7489  1  0.00449046  0.26477228  0.33154366  1.0
  O  O7490  1  0.00449046  0.43143895  0.33154366  1.0
  O  O7491  1  0.00449046  0.59810562  0.33154366  1.0
  O  O7492  1  0.00449046  0.76477228  0.33154366  1.0
  O  O7493  1  0.00449046  0.93143895  0.33154366  1.0
  O  O7494  1  0.08782379  0.09810562  0.33154366  1.0
  O  O7495  1  0.08782379  0.26477228  0.33154366  1.0
  O  O7496  1  0.08782379  0.43143895  0.33154366  1.0
  O  O7497  1  0.08782379  0.59810562  0.33154366  1.0
  O  O7498  1  0.08782379  0.76477228  0.33154366  1.0
  O  O7499  1  0.08782379  0.93143895  0.33154366  1.0
  O  O7500  1  0.17115713  0.09810562  0.33154366  1.0
  O  O7501  1  0.17115713  0.26477228  0.33154366  1.0
  O  O7502  1  0.17115713  0.43143895  0.33154366  1.0
  O  O7503  1  0.17115713  0.59810562  0.33154366  1.0
  O  O7504  1  0.17115713  0.76477228  0.33154366  1.0
  O  O7505  1  0.17115713  0.93143895  0.33154366  1.0
  O  O7506  1  0.25449046  0.09810562  0.33154366  1.0
  O  O7507  1  0.25449046  0.26477228  0.33154366  1.0
  O  O7508  1  0.25449046  0.43143895  0.33154366  1.0
  O  O7509  1  0.25449046  0.59810562  0.33154366  1.0
  O  O7510  1  0.25449046  0.76477228  0.33154366  1.0
  O  O7511  1  0.25449046  0.93143895  0.33154366  1.0
  O  O7512  1  0.33782379  0.09810562  0.33154366  1.0
  O  O7513  1  0.33782379  0.26477228  0.33154366  1.0
  O  O7514  1  0.33782379  0.43143895  0.33154366  1.0
  O  O7515  1  0.33782379  0.59810562  0.33154366  1.0
  O  O7516  1  0.33782379  0.76477228  0.33154366  1.0
  O  O7517  1  0.33782379  0.93143895  0.33154366  1.0
  O  O7518  1  0.42115713  0.09810562  0.33154366  1.0
  O  O7519  1  0.42115713  0.26477228  0.33154366  1.0
  O  O7520  1  0.42115713  0.43143895  0.33154366  1.0
  O  O7521  1  0.42115713  0.59810562  0.33154366  1.0
  O  O7522  1  0.42115713  0.76477228  0.33154366  1.0
  O  O7523  1  0.42115713  0.93143895  0.33154366  1.0
  O  O7524  1  0.50449046  0.09810562  0.33154366  1.0
  O  O7525  1  0.50449046  0.26477228  0.33154366  1.0
  O  O7526  1  0.50449046  0.43143895  0.33154366  1.0
  O  O7527  1  0.50449046  0.59810562  0.33154366  1.0
  O  O7528  1  0.50449046  0.76477228  0.33154366  1.0
  O  O7529  1  0.50449046  0.93143895  0.33154366  1.0
  O  O7530  1  0.58782379  0.09810562  0.33154366  1.0
  O  O7531  1  0.58782379  0.26477228  0.33154366  1.0
  O  O7532  1  0.58782379  0.43143895  0.33154366  1.0
  O  O7533  1  0.58782379  0.59810562  0.33154366  1.0
  O  O7534  1  0.58782379  0.76477228  0.33154366  1.0
  O  O7535  1  0.58782379  0.93143895  0.33154366  1.0
  O  O7536  1  0.67115713  0.09810562  0.33154366  1.0
  O  O7537  1  0.67115713  0.26477228  0.33154366  1.0
  O  O7538  1  0.67115713  0.43143895  0.33154366  1.0
  O  O7539  1  0.67115713  0.59810562  0.33154366  1.0
  O  O7540  1  0.67115713  0.76477228  0.33154366  1.0
  O  O7541  1  0.67115713  0.93143895  0.33154366  1.0
  O  O7542  1  0.75449046  0.09810562  0.33154366  1.0
  O  O7543  1  0.75449046  0.26477228  0.33154366  1.0
  O  O7544  1  0.75449046  0.43143895  0.33154366  1.0
  O  O7545  1  0.75449046  0.59810562  0.33154366  1.0
  O  O7546  1  0.75449046  0.76477228  0.33154366  1.0
  O  O7547  1  0.75449046  0.93143895  0.33154366  1.0
  O  O7548  1  0.83782379  0.09810562  0.33154366  1.0
  O  O7549  1  0.83782379  0.26477228  0.33154366  1.0
  O  O7550  1  0.83782379  0.43143895  0.33154366  1.0
  O  O7551  1  0.83782379  0.59810562  0.33154366  1.0
  O  O7552  1  0.83782379  0.76477228  0.33154366  1.0
  O  O7553  1  0.83782379  0.93143895  0.33154366  1.0
  O  O7554  1  0.92115713  0.09810562  0.33154366  1.0
  O  O7555  1  0.92115713  0.26477228  0.33154366  1.0
  O  O7556  1  0.92115713  0.43143895  0.33154366  1.0
  O  O7557  1  0.92115713  0.59810562  0.33154366  1.0
  O  O7558  1  0.92115713  0.76477228  0.33154366  1.0
  O  O7559  1  0.92115713  0.93143895  0.33154366  1.0
  O  O7560  1  0.02829998  0.11001038  0.26011509  1.0
  O  O7561  1  0.02829998  0.27667705  0.26011509  1.0
  O  O7562  1  0.02829998  0.44334371  0.26011509  1.0
  O  O7563  1  0.02829998  0.61001038  0.26011509  1.0
  O  O7564  1  0.02829998  0.77667705  0.26011509  1.0
  O  O7565  1  0.02829998  0.94334371  0.26011509  1.0
  O  O7566  1  0.11163332  0.11001038  0.26011509  1.0
  O  O7567  1  0.11163332  0.27667705  0.26011509  1.0
  O  O7568  1  0.11163332  0.44334371  0.26011509  1.0
  O  O7569  1  0.11163332  0.61001038  0.26011509  1.0
  O  O7570  1  0.11163332  0.77667705  0.26011509  1.0
  O  O7571  1  0.11163332  0.94334371  0.26011509  1.0
  O  O7572  1  0.19496665  0.11001038  0.26011509  1.0
  O  O7573  1  0.19496665  0.27667705  0.26011509  1.0
  O  O7574  1  0.19496665  0.44334371  0.26011509  1.0
  O  O7575  1  0.19496665  0.61001038  0.26011509  1.0
  O  O7576  1  0.19496665  0.77667705  0.26011509  1.0
  O  O7577  1  0.19496665  0.94334371  0.26011509  1.0
  O  O7578  1  0.27829998  0.11001038  0.26011509  1.0
  O  O7579  1  0.27829998  0.27667705  0.26011509  1.0
  O  O7580  1  0.27829998  0.44334371  0.26011509  1.0
  O  O7581  1  0.27829998  0.61001038  0.26011509  1.0
  O  O7582  1  0.27829998  0.77667705  0.26011509  1.0
  O  O7583  1  0.27829998  0.94334371  0.26011509  1.0
  O  O7584  1  0.36163332  0.11001038  0.26011509  1.0
  O  O7585  1  0.36163332  0.27667705  0.26011509  1.0
  O  O7586  1  0.36163332  0.44334371  0.26011509  1.0
  O  O7587  1  0.36163332  0.61001038  0.26011509  1.0
  O  O7588  1  0.36163332  0.77667705  0.26011509  1.0
  O  O7589  1  0.36163332  0.94334371  0.26011509  1.0
  O  O7590  1  0.44496665  0.11001038  0.26011509  1.0
  O  O7591  1  0.44496665  0.27667705  0.26011509  1.0
  O  O7592  1  0.44496665  0.44334371  0.26011509  1.0
  O  O7593  1  0.44496665  0.61001038  0.26011509  1.0
  O  O7594  1  0.44496665  0.77667705  0.26011509  1.0
  O  O7595  1  0.44496665  0.94334371  0.26011509  1.0
  O  O7596  1  0.52829998  0.11001038  0.26011509  1.0
  O  O7597  1  0.52829998  0.27667705  0.26011509  1.0
  O  O7598  1  0.52829998  0.44334371  0.26011509  1.0
  O  O7599  1  0.52829998  0.61001038  0.26011509  1.0
  O  O7600  1  0.52829998  0.77667705  0.26011509  1.0
  O  O7601  1  0.52829998  0.94334371  0.26011509  1.0
  O  O7602  1  0.61163332  0.11001038  0.26011509  1.0
  O  O7603  1  0.61163332  0.27667705  0.26011509  1.0
  O  O7604  1  0.61163332  0.44334371  0.26011509  1.0
  O  O7605  1  0.61163332  0.61001038  0.26011509  1.0
  O  O7606  1  0.61163332  0.77667705  0.26011509  1.0
  O  O7607  1  0.61163332  0.94334371  0.26011509  1.0
  O  O7608  1  0.69496665  0.11001038  0.26011509  1.0
  O  O7609  1  0.69496665  0.27667705  0.26011509  1.0
  O  O7610  1  0.69496665  0.44334371  0.26011509  1.0
  O  O7611  1  0.69496665  0.61001038  0.26011509  1.0
  O  O7612  1  0.69496665  0.77667705  0.26011509  1.0
  O  O7613  1  0.69496665  0.94334371  0.26011509  1.0
  O  O7614  1  0.77829998  0.11001038  0.26011509  1.0
  O  O7615  1  0.77829998  0.27667705  0.26011509  1.0
  O  O7616  1  0.77829998  0.44334371  0.26011509  1.0
  O  O7617  1  0.77829998  0.61001038  0.26011509  1.0
  O  O7618  1  0.77829998  0.77667705  0.26011509  1.0
  O  O7619  1  0.77829998  0.94334371  0.26011509  1.0
  O  O7620  1  0.86163332  0.11001038  0.26011509  1.0
  O  O7621  1  0.86163332  0.27667705  0.26011509  1.0
  O  O7622  1  0.86163332  0.44334371  0.26011509  1.0
  O  O7623  1  0.86163332  0.61001038  0.26011509  1.0
  O  O7624  1  0.86163332  0.77667705  0.26011509  1.0
  O  O7625  1  0.86163332  0.94334371  0.26011509  1.0
  O  O7626  1  0.94496665  0.11001038  0.26011509  1.0
  O  O7627  1  0.94496665  0.27667705  0.26011509  1.0
  O  O7628  1  0.94496665  0.44334371  0.26011509  1.0
  O  O7629  1  0.94496665  0.61001038  0.26011509  1.0
  O  O7630  1  0.94496665  0.77667705  0.26011509  1.0
  O  O7631  1  0.94496665  0.94334371  0.26011509  1.0
  O  O7632  1  0.02776513  0.01767886  0.38863657  1.0
  O  O7633  1  0.02776513  0.18434552  0.38863657  1.0
  O  O7634  1  0.02776513  0.35101219  0.38863657  1.0
  O  O7635  1  0.02776513  0.51767886  0.38863657  1.0
  O  O7636  1  0.02776513  0.68434552  0.38863657  1.0
  O  O7637  1  0.02776513  0.85101219  0.38863657  1.0
  O  O7638  1  0.11109847  0.01767886  0.38863657  1.0
  O  O7639  1  0.11109847  0.18434552  0.38863657  1.0
  O  O7640  1  0.11109847  0.35101219  0.38863657  1.0
  O  O7641  1  0.11109847  0.51767886  0.38863657  1.0
  O  O7642  1  0.11109847  0.68434552  0.38863657  1.0
  O  O7643  1  0.11109847  0.85101219  0.38863657  1.0
  O  O7644  1  0.19443180  0.01767886  0.38863657  1.0
  O  O7645  1  0.19443180  0.18434552  0.38863657  1.0
  O  O7646  1  0.19443180  0.35101219  0.38863657  1.0
  O  O7647  1  0.19443180  0.51767886  0.38863657  1.0
  O  O7648  1  0.19443180  0.68434552  0.38863657  1.0
  O  O7649  1  0.19443180  0.85101219  0.38863657  1.0
  O  O7650  1  0.27776513  0.01767886  0.38863657  1.0
  O  O7651  1  0.27776513  0.18434552  0.38863657  1.0
  O  O7652  1  0.27776513  0.35101219  0.38863657  1.0
  O  O7653  1  0.27776513  0.51767886  0.38863657  1.0
  O  O7654  1  0.27776513  0.68434552  0.38863657  1.0
  O  O7655  1  0.27776513  0.85101219  0.38863657  1.0
  O  O7656  1  0.36109847  0.01767886  0.38863657  1.0
  O  O7657  1  0.36109847  0.18434552  0.38863657  1.0
  O  O7658  1  0.36109847  0.35101219  0.38863657  1.0
  O  O7659  1  0.36109847  0.51767886  0.38863657  1.0
  O  O7660  1  0.36109847  0.68434552  0.38863657  1.0
  O  O7661  1  0.36109847  0.85101219  0.38863657  1.0
  O  O7662  1  0.44443180  0.01767886  0.38863657  1.0
  O  O7663  1  0.44443180  0.18434552  0.38863657  1.0
  O  O7664  1  0.44443180  0.35101219  0.38863657  1.0
  O  O7665  1  0.44443180  0.51767886  0.38863657  1.0
  O  O7666  1  0.44443180  0.68434552  0.38863657  1.0
  O  O7667  1  0.44443180  0.85101219  0.38863657  1.0
  O  O7668  1  0.52776513  0.01767886  0.38863657  1.0
  O  O7669  1  0.52776513  0.18434552  0.38863657  1.0
  O  O7670  1  0.52776513  0.35101219  0.38863657  1.0
  O  O7671  1  0.52776513  0.51767886  0.38863657  1.0
  O  O7672  1  0.52776513  0.68434552  0.38863657  1.0
  O  O7673  1  0.52776513  0.85101219  0.38863657  1.0
  O  O7674  1  0.61109847  0.01767886  0.38863657  1.0
  O  O7675  1  0.61109847  0.18434552  0.38863657  1.0
  O  O7676  1  0.61109847  0.35101219  0.38863657  1.0
  O  O7677  1  0.61109847  0.51767886  0.38863657  1.0
  O  O7678  1  0.61109847  0.68434552  0.38863657  1.0
  O  O7679  1  0.61109847  0.85101219  0.38863657  1.0
  O  O7680  1  0.69443180  0.01767886  0.38863657  1.0
  O  O7681  1  0.69443180  0.18434552  0.38863657  1.0
  O  O7682  1  0.69443180  0.35101219  0.38863657  1.0
  O  O7683  1  0.69443180  0.51767886  0.38863657  1.0
  O  O7684  1  0.69443180  0.68434552  0.38863657  1.0
  O  O7685  1  0.69443180  0.85101219  0.38863657  1.0
  O  O7686  1  0.77776513  0.01767886  0.38863657  1.0
  O  O7687  1  0.77776513  0.18434552  0.38863657  1.0
  O  O7688  1  0.77776513  0.35101219  0.38863657  1.0
  O  O7689  1  0.77776513  0.51767886  0.38863657  1.0
  O  O7690  1  0.77776513  0.68434552  0.38863657  1.0
  O  O7691  1  0.77776513  0.85101219  0.38863657  1.0
  O  O7692  1  0.86109847  0.01767886  0.38863657  1.0
  O  O7693  1  0.86109847  0.18434552  0.38863657  1.0
  O  O7694  1  0.86109847  0.35101219  0.38863657  1.0
  O  O7695  1  0.86109847  0.51767886  0.38863657  1.0
  O  O7696  1  0.86109847  0.68434552  0.38863657  1.0
  O  O7697  1  0.86109847  0.85101219  0.38863657  1.0
  O  O7698  1  0.94443180  0.01767886  0.38863657  1.0
  O  O7699  1  0.94443180  0.18434552  0.38863657  1.0
  O  O7700  1  0.94443180  0.35101219  0.38863657  1.0
  O  O7701  1  0.94443180  0.51767886  0.38863657  1.0
  O  O7702  1  0.94443180  0.68434552  0.38863657  1.0
  O  O7703  1  0.94443180  0.85101219  0.38863657  1.0
  O  O7704  1  0.00395561  0.00577410  0.46006514  1.0
  O  O7705  1  0.00395561  0.17244076  0.46006514  1.0
  O  O7706  1  0.00395561  0.33910743  0.46006514  1.0
  O  O7707  1  0.00395561  0.50577410  0.46006514  1.0
  O  O7708  1  0.00395561  0.67244076  0.46006514  1.0
  O  O7709  1  0.00395561  0.83910743  0.46006514  1.0
  O  O7710  1  0.08728894  0.00577410  0.46006514  1.0
  O  O7711  1  0.08728894  0.17244076  0.46006514  1.0
  O  O7712  1  0.08728894  0.33910743  0.46006514  1.0
  O  O7713  1  0.08728894  0.50577410  0.46006514  1.0
  O  O7714  1  0.08728894  0.67244076  0.46006514  1.0
  O  O7715  1  0.08728894  0.83910743  0.46006514  1.0
  O  O7716  1  0.17062228  0.00577410  0.46006514  1.0
  O  O7717  1  0.17062228  0.17244076  0.46006514  1.0
  O  O7718  1  0.17062228  0.33910743  0.46006514  1.0
  O  O7719  1  0.17062228  0.50577410  0.46006514  1.0
  O  O7720  1  0.17062228  0.67244076  0.46006514  1.0
  O  O7721  1  0.17062228  0.83910743  0.46006514  1.0
  O  O7722  1  0.25395561  0.00577410  0.46006514  1.0
  O  O7723  1  0.25395561  0.17244076  0.46006514  1.0
  O  O7724  1  0.25395561  0.33910743  0.46006514  1.0
  O  O7725  1  0.25395561  0.50577410  0.46006514  1.0
  O  O7726  1  0.25395561  0.67244076  0.46006514  1.0
  O  O7727  1  0.25395561  0.83910743  0.46006514  1.0
  O  O7728  1  0.33728894  0.00577410  0.46006514  1.0
  O  O7729  1  0.33728894  0.17244076  0.46006514  1.0
  O  O7730  1  0.33728894  0.33910743  0.46006514  1.0
  O  O7731  1  0.33728894  0.50577410  0.46006514  1.0
  O  O7732  1  0.33728894  0.67244076  0.46006514  1.0
  O  O7733  1  0.33728894  0.83910743  0.46006514  1.0
  O  O7734  1  0.42062228  0.00577410  0.46006514  1.0
  O  O7735  1  0.42062228  0.17244076  0.46006514  1.0
  O  O7736  1  0.42062228  0.33910743  0.46006514  1.0
  O  O7737  1  0.42062228  0.50577410  0.46006514  1.0
  O  O7738  1  0.42062228  0.67244076  0.46006514  1.0
  O  O7739  1  0.42062228  0.83910743  0.46006514  1.0
  O  O7740  1  0.50395561  0.00577410  0.46006514  1.0
  O  O7741  1  0.50395561  0.17244076  0.46006514  1.0
  O  O7742  1  0.50395561  0.33910743  0.46006514  1.0
  O  O7743  1  0.50395561  0.50577410  0.46006514  1.0
  O  O7744  1  0.50395561  0.67244076  0.46006514  1.0
  O  O7745  1  0.50395561  0.83910743  0.46006514  1.0
  O  O7746  1  0.58728894  0.00577410  0.46006514  1.0
  O  O7747  1  0.58728894  0.17244076  0.46006514  1.0
  O  O7748  1  0.58728894  0.33910743  0.46006514  1.0
  O  O7749  1  0.58728894  0.50577410  0.46006514  1.0
  O  O7750  1  0.58728894  0.67244076  0.46006514  1.0
  O  O7751  1  0.58728894  0.83910743  0.46006514  1.0
  O  O7752  1  0.67062228  0.00577410  0.46006514  1.0
  O  O7753  1  0.67062228  0.17244076  0.46006514  1.0
  O  O7754  1  0.67062228  0.33910743  0.46006514  1.0
  O  O7755  1  0.67062228  0.50577410  0.46006514  1.0
  O  O7756  1  0.67062228  0.67244076  0.46006514  1.0
  O  O7757  1  0.67062228  0.83910743  0.46006514  1.0
  O  O7758  1  0.75395561  0.00577410  0.46006514  1.0
  O  O7759  1  0.75395561  0.17244076  0.46006514  1.0
  O  O7760  1  0.75395561  0.33910743  0.46006514  1.0
  O  O7761  1  0.75395561  0.50577410  0.46006514  1.0
  O  O7762  1  0.75395561  0.67244076  0.46006514  1.0
  O  O7763  1  0.75395561  0.83910743  0.46006514  1.0
  O  O7764  1  0.83728894  0.00577410  0.46006514  1.0
  O  O7765  1  0.83728894  0.17244076  0.46006514  1.0
  O  O7766  1  0.83728894  0.33910743  0.46006514  1.0
  O  O7767  1  0.83728894  0.50577410  0.46006514  1.0
  O  O7768  1  0.83728894  0.67244076  0.46006514  1.0
  O  O7769  1  0.83728894  0.83910743  0.46006514  1.0
  O  O7770  1  0.92062228  0.00577410  0.46006514  1.0
  O  O7771  1  0.92062228  0.17244076  0.46006514  1.0
  O  O7772  1  0.92062228  0.33910743  0.46006514  1.0
  O  O7773  1  0.92062228  0.50577410  0.46006514  1.0
  O  O7774  1  0.92062228  0.67244076  0.46006514  1.0
  O  O7775  1  0.92062228  0.83910743  0.46006514  1.0
  O  O7776  1  0.03206436  0.13952322  0.37788990  1.0
  O  O7777  1  0.03206436  0.30618988  0.37788990  1.0
  O  O7778  1  0.03206436  0.47285655  0.37788990  1.0
  O  O7779  1  0.03206436  0.63952322  0.37788990  1.0
  O  O7780  1  0.03206436  0.80618988  0.37788990  1.0
  O  O7781  1  0.03206436  0.97285655  0.37788990  1.0
  O  O7782  1  0.11539770  0.13952322  0.37788990  1.0
  O  O7783  1  0.11539770  0.30618988  0.37788990  1.0
  O  O7784  1  0.11539770  0.47285655  0.37788990  1.0
  O  O7785  1  0.11539770  0.63952322  0.37788990  1.0
  O  O7786  1  0.11539770  0.80618988  0.37788990  1.0
  O  O7787  1  0.11539770  0.97285655  0.37788990  1.0
  O  O7788  1  0.19873103  0.13952322  0.37788990  1.0
  O  O7789  1  0.19873103  0.30618988  0.37788990  1.0
  O  O7790  1  0.19873103  0.47285655  0.37788990  1.0
  O  O7791  1  0.19873103  0.63952322  0.37788990  1.0
  O  O7792  1  0.19873103  0.80618988  0.37788990  1.0
  O  O7793  1  0.19873103  0.97285655  0.37788990  1.0
  O  O7794  1  0.28206436  0.13952322  0.37788990  1.0
  O  O7795  1  0.28206436  0.30618988  0.37788990  1.0
  O  O7796  1  0.28206436  0.47285655  0.37788990  1.0
  O  O7797  1  0.28206436  0.63952322  0.37788990  1.0
  O  O7798  1  0.28206436  0.80618988  0.37788990  1.0
  O  O7799  1  0.28206436  0.97285655  0.37788990  1.0
  O  O7800  1  0.36539770  0.13952322  0.37788990  1.0
  O  O7801  1  0.36539770  0.30618988  0.37788990  1.0
  O  O7802  1  0.36539770  0.47285655  0.37788990  1.0
  O  O7803  1  0.36539770  0.63952322  0.37788990  1.0
  O  O7804  1  0.36539770  0.80618988  0.37788990  1.0
  O  O7805  1  0.36539770  0.97285655  0.37788990  1.0
  O  O7806  1  0.44873103  0.13952322  0.37788990  1.0
  O  O7807  1  0.44873103  0.30618988  0.37788990  1.0
  O  O7808  1  0.44873103  0.47285655  0.37788990  1.0
  O  O7809  1  0.44873103  0.63952322  0.37788990  1.0
  O  O7810  1  0.44873103  0.80618988  0.37788990  1.0
  O  O7811  1  0.44873103  0.97285655  0.37788990  1.0
  O  O7812  1  0.53206436  0.13952322  0.37788990  1.0
  O  O7813  1  0.53206436  0.30618988  0.37788990  1.0
  O  O7814  1  0.53206436  0.47285655  0.37788990  1.0
  O  O7815  1  0.53206436  0.63952322  0.37788990  1.0
  O  O7816  1  0.53206436  0.80618988  0.37788990  1.0
  O  O7817  1  0.53206436  0.97285655  0.37788990  1.0
  O  O7818  1  0.61539770  0.13952322  0.37788990  1.0
  O  O7819  1  0.61539770  0.30618988  0.37788990  1.0
  O  O7820  1  0.61539770  0.47285655  0.37788990  1.0
  O  O7821  1  0.61539770  0.63952322  0.37788990  1.0
  O  O7822  1  0.61539770  0.80618988  0.37788990  1.0
  O  O7823  1  0.61539770  0.97285655  0.37788990  1.0
  O  O7824  1  0.69873103  0.13952322  0.37788990  1.0
  O  O7825  1  0.69873103  0.30618988  0.37788990  1.0
  O  O7826  1  0.69873103  0.47285655  0.37788990  1.0
  O  O7827  1  0.69873103  0.63952322  0.37788990  1.0
  O  O7828  1  0.69873103  0.80618988  0.37788990  1.0
  O  O7829  1  0.69873103  0.97285655  0.37788990  1.0
  O  O7830  1  0.78206436  0.13952322  0.37788990  1.0
  O  O7831  1  0.78206436  0.30618988  0.37788990  1.0
  O  O7832  1  0.78206436  0.47285655  0.37788990  1.0
  O  O7833  1  0.78206436  0.63952322  0.37788990  1.0
  O  O7834  1  0.78206436  0.80618988  0.37788990  1.0
  O  O7835  1  0.78206436  0.97285655  0.37788990  1.0
  O  O7836  1  0.86539770  0.13952322  0.37788990  1.0
  O  O7837  1  0.86539770  0.30618988  0.37788990  1.0
  O  O7838  1  0.86539770  0.47285655  0.37788990  1.0
  O  O7839  1  0.86539770  0.63952322  0.37788990  1.0
  O  O7840  1  0.86539770  0.80618988  0.37788990  1.0
  O  O7841  1  0.86539770  0.97285655  0.37788990  1.0
  O  O7842  1  0.94873103  0.13952322  0.37788990  1.0
  O  O7843  1  0.94873103  0.30618988  0.37788990  1.0
  O  O7844  1  0.94873103  0.47285655  0.37788990  1.0
  O  O7845  1  0.94873103  0.63952322  0.37788990  1.0
  O  O7846  1  0.94873103  0.80618988  0.37788990  1.0
  O  O7847  1  0.94873103  0.97285655  0.37788990  1.0
  O  O7848  1  0.00825484  0.12761845  0.44931847  1.0
  O  O7849  1  0.00825484  0.29428512  0.44931847  1.0
  O  O7850  1  0.00825484  0.46095179  0.44931847  1.0
  O  O7851  1  0.00825484  0.62761845  0.44931847  1.0
  O  O7852  1  0.00825484  0.79428512  0.44931847  1.0
  O  O7853  1  0.00825484  0.96095179  0.44931847  1.0
  O  O7854  1  0.09158817  0.12761845  0.44931847  1.0
  O  O7855  1  0.09158817  0.29428512  0.44931847  1.0
  O  O7856  1  0.09158817  0.46095179  0.44931847  1.0
  O  O7857  1  0.09158817  0.62761845  0.44931847  1.0
  O  O7858  1  0.09158817  0.79428512  0.44931847  1.0
  O  O7859  1  0.09158817  0.96095179  0.44931847  1.0
  O  O7860  1  0.17492150  0.12761845  0.44931847  1.0
  O  O7861  1  0.17492150  0.29428512  0.44931847  1.0
  O  O7862  1  0.17492150  0.46095179  0.44931847  1.0
  O  O7863  1  0.17492150  0.62761845  0.44931847  1.0
  O  O7864  1  0.17492150  0.79428512  0.44931847  1.0
  O  O7865  1  0.17492150  0.96095179  0.44931847  1.0
  O  O7866  1  0.25825484  0.12761845  0.44931847  1.0
  O  O7867  1  0.25825484  0.29428512  0.44931847  1.0
  O  O7868  1  0.25825484  0.46095179  0.44931847  1.0
  O  O7869  1  0.25825484  0.62761845  0.44931847  1.0
  O  O7870  1  0.25825484  0.79428512  0.44931847  1.0
  O  O7871  1  0.25825484  0.96095179  0.44931847  1.0
  O  O7872  1  0.34158817  0.12761845  0.44931847  1.0
  O  O7873  1  0.34158817  0.29428512  0.44931847  1.0
  O  O7874  1  0.34158817  0.46095179  0.44931847  1.0
  O  O7875  1  0.34158817  0.62761845  0.44931847  1.0
  O  O7876  1  0.34158817  0.79428512  0.44931847  1.0
  O  O7877  1  0.34158817  0.96095179  0.44931847  1.0
  O  O7878  1  0.42492150  0.12761845  0.44931847  1.0
  O  O7879  1  0.42492150  0.29428512  0.44931847  1.0
  O  O7880  1  0.42492150  0.46095179  0.44931847  1.0
  O  O7881  1  0.42492150  0.62761845  0.44931847  1.0
  O  O7882  1  0.42492150  0.79428512  0.44931847  1.0
  O  O7883  1  0.42492150  0.96095179  0.44931847  1.0
  O  O7884  1  0.50825484  0.12761845  0.44931847  1.0
  O  O7885  1  0.50825484  0.29428512  0.44931847  1.0
  O  O7886  1  0.50825484  0.46095179  0.44931847  1.0
  O  O7887  1  0.50825484  0.62761845  0.44931847  1.0
  O  O7888  1  0.50825484  0.79428512  0.44931847  1.0
  O  O7889  1  0.50825484  0.96095179  0.44931847  1.0
  O  O7890  1  0.59158817  0.12761845  0.44931847  1.0
  O  O7891  1  0.59158817  0.29428512  0.44931847  1.0
  O  O7892  1  0.59158817  0.46095179  0.44931847  1.0
  O  O7893  1  0.59158817  0.62761845  0.44931847  1.0
  O  O7894  1  0.59158817  0.79428512  0.44931847  1.0
  O  O7895  1  0.59158817  0.96095179  0.44931847  1.0
  O  O7896  1  0.67492150  0.12761845  0.44931847  1.0
  O  O7897  1  0.67492150  0.29428512  0.44931847  1.0
  O  O7898  1  0.67492150  0.46095179  0.44931847  1.0
  O  O7899  1  0.67492150  0.62761845  0.44931847  1.0
  O  O7900  1  0.67492150  0.79428512  0.44931847  1.0
  O  O7901  1  0.67492150  0.96095179  0.44931847  1.0
  O  O7902  1  0.75825484  0.12761845  0.44931847  1.0
  O  O7903  1  0.75825484  0.29428512  0.44931847  1.0
  O  O7904  1  0.75825484  0.46095179  0.44931847  1.0
  O  O7905  1  0.75825484  0.62761845  0.44931847  1.0
  O  O7906  1  0.75825484  0.79428512  0.44931847  1.0
  O  O7907  1  0.75825484  0.96095179  0.44931847  1.0
  O  O7908  1  0.84158817  0.12761845  0.44931847  1.0
  O  O7909  1  0.84158817  0.29428512  0.44931847  1.0
  O  O7910  1  0.84158817  0.46095179  0.44931847  1.0
  O  O7911  1  0.84158817  0.62761845  0.44931847  1.0
  O  O7912  1  0.84158817  0.79428512  0.44931847  1.0
  O  O7913  1  0.84158817  0.96095179  0.44931847  1.0
  O  O7914  1  0.92492150  0.12761845  0.44931847  1.0
  O  O7915  1  0.92492150  0.29428512  0.44931847  1.0
  O  O7916  1  0.92492150  0.46095179  0.44931847  1.0
  O  O7917  1  0.92492150  0.62761845  0.44931847  1.0
  O  O7918  1  0.92492150  0.79428512  0.44931847  1.0
  O  O7919  1  0.92492150  0.96095179  0.44931847  1.0
  O  O7920  1  0.06826969  0.04030177  0.39359636  1.0
  O  O7921  1  0.06826969  0.20696843  0.39359636  1.0
  O  O7922  1  0.06826969  0.37363510  0.39359636  1.0
  O  O7923  1  0.06826969  0.54030177  0.39359636  1.0
  O  O7924  1  0.06826969  0.70696843  0.39359636  1.0
  O  O7925  1  0.06826969  0.87363510  0.39359636  1.0
  O  O7926  1  0.15160302  0.04030177  0.39359636  1.0
  O  O7927  1  0.15160302  0.20696843  0.39359636  1.0
  O  O7928  1  0.15160302  0.37363510  0.39359636  1.0
  O  O7929  1  0.15160302  0.54030177  0.39359636  1.0
  O  O7930  1  0.15160302  0.70696843  0.39359636  1.0
  O  O7931  1  0.15160302  0.87363510  0.39359636  1.0
  O  O7932  1  0.23493636  0.04030177  0.39359636  1.0
  O  O7933  1  0.23493636  0.20696843  0.39359636  1.0
  O  O7934  1  0.23493636  0.37363510  0.39359636  1.0
  O  O7935  1  0.23493636  0.54030177  0.39359636  1.0
  O  O7936  1  0.23493636  0.70696843  0.39359636  1.0
  O  O7937  1  0.23493636  0.87363510  0.39359636  1.0
  O  O7938  1  0.31826969  0.04030177  0.39359636  1.0
  O  O7939  1  0.31826969  0.20696843  0.39359636  1.0
  O  O7940  1  0.31826969  0.37363510  0.39359636  1.0
  O  O7941  1  0.31826969  0.54030177  0.39359636  1.0
  O  O7942  1  0.31826969  0.70696843  0.39359636  1.0
  O  O7943  1  0.31826969  0.87363510  0.39359636  1.0
  O  O7944  1  0.40160302  0.04030177  0.39359636  1.0
  O  O7945  1  0.40160302  0.20696843  0.39359636  1.0
  O  O7946  1  0.40160302  0.37363510  0.39359636  1.0
  O  O7947  1  0.40160302  0.54030177  0.39359636  1.0
  O  O7948  1  0.40160302  0.70696843  0.39359636  1.0
  O  O7949  1  0.40160302  0.87363510  0.39359636  1.0
  O  O7950  1  0.48493636  0.04030177  0.39359636  1.0
  O  O7951  1  0.48493636  0.20696843  0.39359636  1.0
  O  O7952  1  0.48493636  0.37363510  0.39359636  1.0
  O  O7953  1  0.48493636  0.54030177  0.39359636  1.0
  O  O7954  1  0.48493636  0.70696843  0.39359636  1.0
  O  O7955  1  0.48493636  0.87363510  0.39359636  1.0
  O  O7956  1  0.56826969  0.04030177  0.39359636  1.0
  O  O7957  1  0.56826969  0.20696843  0.39359636  1.0
  O  O7958  1  0.56826969  0.37363510  0.39359636  1.0
  O  O7959  1  0.56826969  0.54030177  0.39359636  1.0
  O  O7960  1  0.56826969  0.70696843  0.39359636  1.0
  O  O7961  1  0.56826969  0.87363510  0.39359636  1.0
  O  O7962  1  0.65160302  0.04030177  0.39359636  1.0
  O  O7963  1  0.65160302  0.20696843  0.39359636  1.0
  O  O7964  1  0.65160302  0.37363510  0.39359636  1.0
  O  O7965  1  0.65160302  0.54030177  0.39359636  1.0
  O  O7966  1  0.65160302  0.70696843  0.39359636  1.0
  O  O7967  1  0.65160302  0.87363510  0.39359636  1.0
  O  O7968  1  0.73493636  0.04030177  0.39359636  1.0
  O  O7969  1  0.73493636  0.20696843  0.39359636  1.0
  O  O7970  1  0.73493636  0.37363510  0.39359636  1.0
  O  O7971  1  0.73493636  0.54030177  0.39359636  1.0
  O  O7972  1  0.73493636  0.70696843  0.39359636  1.0
  O  O7973  1  0.73493636  0.87363510  0.39359636  1.0
  O  O7974  1  0.81826969  0.04030177  0.39359636  1.0
  O  O7975  1  0.81826969  0.20696843  0.39359636  1.0
  O  O7976  1  0.81826969  0.37363510  0.39359636  1.0
  O  O7977  1  0.81826969  0.54030177  0.39359636  1.0
  O  O7978  1  0.81826969  0.70696843  0.39359636  1.0
  O  O7979  1  0.81826969  0.87363510  0.39359636  1.0
  O  O7980  1  0.90160302  0.04030177  0.39359636  1.0
  O  O7981  1  0.90160302  0.20696843  0.39359636  1.0
  O  O7982  1  0.90160302  0.37363510  0.39359636  1.0
  O  O7983  1  0.90160302  0.54030177  0.39359636  1.0
  O  O7984  1  0.90160302  0.70696843  0.39359636  1.0
  O  O7985  1  0.90160302  0.87363510  0.39359636  1.0
  O  O7986  1  0.98493636  0.04030177  0.39359636  1.0
  O  O7987  1  0.98493636  0.20696843  0.39359636  1.0
  O  O7988  1  0.98493636  0.37363510  0.39359636  1.0
  O  O7989  1  0.98493636  0.54030177  0.39359636  1.0
  O  O7990  1  0.98493636  0.70696843  0.39359636  1.0
  O  O7991  1  0.98493636  0.87363510  0.39359636  1.0
  O  O7992  1  0.04446017  0.02839700  0.46502493  1.0
  O  O7993  1  0.04446017  0.19506367  0.46502493  1.0
  O  O7994  1  0.04446017  0.36173034  0.46502493  1.0
  O  O7995  1  0.04446017  0.52839700  0.46502493  1.0
  O  O7996  1  0.04446017  0.69506367  0.46502493  1.0
  O  O7997  1  0.04446017  0.86173034  0.46502493  1.0
  O  O7998  1  0.12779350  0.02839700  0.46502493  1.0
  O  O7999  1  0.12779350  0.19506367  0.46502493  1.0
  O  O8000  1  0.12779350  0.36173034  0.46502493  1.0
  O  O8001  1  0.12779350  0.52839700  0.46502493  1.0
  O  O8002  1  0.12779350  0.69506367  0.46502493  1.0
  O  O8003  1  0.12779350  0.86173034  0.46502493  1.0
  O  O8004  1  0.21112683  0.02839700  0.46502493  1.0
  O  O8005  1  0.21112683  0.19506367  0.46502493  1.0
  O  O8006  1  0.21112683  0.36173034  0.46502493  1.0
  O  O8007  1  0.21112683  0.52839700  0.46502493  1.0
  O  O8008  1  0.21112683  0.69506367  0.46502493  1.0
  O  O8009  1  0.21112683  0.86173034  0.46502493  1.0
  O  O8010  1  0.29446017  0.02839700  0.46502493  1.0
  O  O8011  1  0.29446017  0.19506367  0.46502493  1.0
  O  O8012  1  0.29446017  0.36173034  0.46502493  1.0
  O  O8013  1  0.29446017  0.52839700  0.46502493  1.0
  O  O8014  1  0.29446017  0.69506367  0.46502493  1.0
  O  O8015  1  0.29446017  0.86173034  0.46502493  1.0
  O  O8016  1  0.37779350  0.02839700  0.46502493  1.0
  O  O8017  1  0.37779350  0.19506367  0.46502493  1.0
  O  O8018  1  0.37779350  0.36173034  0.46502493  1.0
  O  O8019  1  0.37779350  0.52839700  0.46502493  1.0
  O  O8020  1  0.37779350  0.69506367  0.46502493  1.0
  O  O8021  1  0.37779350  0.86173034  0.46502493  1.0
  O  O8022  1  0.46112683  0.02839700  0.46502493  1.0
  O  O8023  1  0.46112683  0.19506367  0.46502493  1.0
  O  O8024  1  0.46112683  0.36173034  0.46502493  1.0
  O  O8025  1  0.46112683  0.52839700  0.46502493  1.0
  O  O8026  1  0.46112683  0.69506367  0.46502493  1.0
  O  O8027  1  0.46112683  0.86173034  0.46502493  1.0
  O  O8028  1  0.54446017  0.02839700  0.46502493  1.0
  O  O8029  1  0.54446017  0.19506367  0.46502493  1.0
  O  O8030  1  0.54446017  0.36173034  0.46502493  1.0
  O  O8031  1  0.54446017  0.52839700  0.46502493  1.0
  O  O8032  1  0.54446017  0.69506367  0.46502493  1.0
  O  O8033  1  0.54446017  0.86173034  0.46502493  1.0
  O  O8034  1  0.62779350  0.02839700  0.46502493  1.0
  O  O8035  1  0.62779350  0.19506367  0.46502493  1.0
  O  O8036  1  0.62779350  0.36173034  0.46502493  1.0
  O  O8037  1  0.62779350  0.52839700  0.46502493  1.0
  O  O8038  1  0.62779350  0.69506367  0.46502493  1.0
  O  O8039  1  0.62779350  0.86173034  0.46502493  1.0
  O  O8040  1  0.71112683  0.02839700  0.46502493  1.0
  O  O8041  1  0.71112683  0.19506367  0.46502493  1.0
  O  O8042  1  0.71112683  0.36173034  0.46502493  1.0
  O  O8043  1  0.71112683  0.52839700  0.46502493  1.0
  O  O8044  1  0.71112683  0.69506367  0.46502493  1.0
  O  O8045  1  0.71112683  0.86173034  0.46502493  1.0
  O  O8046  1  0.79446017  0.02839700  0.46502493  1.0
  O  O8047  1  0.79446017  0.19506367  0.46502493  1.0
  O  O8048  1  0.79446017  0.36173034  0.46502493  1.0
  O  O8049  1  0.79446017  0.52839700  0.46502493  1.0
  O  O8050  1  0.79446017  0.69506367  0.46502493  1.0
  O  O8051  1  0.79446017  0.86173034  0.46502493  1.0
  O  O8052  1  0.87779350  0.02839700  0.46502493  1.0
  O  O8053  1  0.87779350  0.19506367  0.46502493  1.0
  O  O8054  1  0.87779350  0.36173034  0.46502493  1.0
  O  O8055  1  0.87779350  0.52839700  0.46502493  1.0
  O  O8056  1  0.87779350  0.69506367  0.46502493  1.0
  O  O8057  1  0.87779350  0.86173034  0.46502493  1.0
  O  O8058  1  0.96112683  0.02839700  0.46502493  1.0
  O  O8059  1  0.96112683  0.19506367  0.46502493  1.0
  O  O8060  1  0.96112683  0.36173034  0.46502493  1.0
  O  O8061  1  0.96112683  0.52839700  0.46502493  1.0
  O  O8062  1  0.96112683  0.69506367  0.46502493  1.0
  O  O8063  1  0.96112683  0.86173034  0.46502493  1.0
  O  O8064  1  0.07110240  0.16200893  0.38420024  1.0
  O  O8065  1  0.07110240  0.32867560  0.38420024  1.0
  O  O8066  1  0.07110240  0.49534226  0.38420024  1.0
  O  O8067  1  0.07110240  0.66200893  0.38420024  1.0
  O  O8068  1  0.07110240  0.82867560  0.38420024  1.0
  O  O8069  1  0.07110240  0.99534226  0.38420024  1.0
  O  O8070  1  0.15443573  0.16200893  0.38420024  1.0
  O  O8071  1  0.15443573  0.32867560  0.38420024  1.0
  O  O8072  1  0.15443573  0.49534226  0.38420024  1.0
  O  O8073  1  0.15443573  0.66200893  0.38420024  1.0
  O  O8074  1  0.15443573  0.82867560  0.38420024  1.0
  O  O8075  1  0.15443573  0.99534226  0.38420024  1.0
  O  O8076  1  0.23776906  0.16200893  0.38420024  1.0
  O  O8077  1  0.23776906  0.32867560  0.38420024  1.0
  O  O8078  1  0.23776906  0.49534226  0.38420024  1.0
  O  O8079  1  0.23776906  0.66200893  0.38420024  1.0
  O  O8080  1  0.23776906  0.82867560  0.38420024  1.0
  O  O8081  1  0.23776906  0.99534226  0.38420024  1.0
  O  O8082  1  0.32110240  0.16200893  0.38420024  1.0
  O  O8083  1  0.32110240  0.32867560  0.38420024  1.0
  O  O8084  1  0.32110240  0.49534226  0.38420024  1.0
  O  O8085  1  0.32110240  0.66200893  0.38420024  1.0
  O  O8086  1  0.32110240  0.82867560  0.38420024  1.0
  O  O8087  1  0.32110240  0.99534226  0.38420024  1.0
  O  O8088  1  0.40443573  0.16200893  0.38420024  1.0
  O  O8089  1  0.40443573  0.32867560  0.38420024  1.0
  O  O8090  1  0.40443573  0.49534226  0.38420024  1.0
  O  O8091  1  0.40443573  0.66200893  0.38420024  1.0
  O  O8092  1  0.40443573  0.82867560  0.38420024  1.0
  O  O8093  1  0.40443573  0.99534226  0.38420024  1.0
  O  O8094  1  0.48776906  0.16200893  0.38420024  1.0
  O  O8095  1  0.48776906  0.32867560  0.38420024  1.0
  O  O8096  1  0.48776906  0.49534226  0.38420024  1.0
  O  O8097  1  0.48776906  0.66200893  0.38420024  1.0
  O  O8098  1  0.48776906  0.82867560  0.38420024  1.0
  O  O8099  1  0.48776906  0.99534226  0.38420024  1.0
  O  O8100  1  0.57110240  0.16200893  0.38420024  1.0
  O  O8101  1  0.57110240  0.32867560  0.38420024  1.0
  O  O8102  1  0.57110240  0.49534226  0.38420024  1.0
  O  O8103  1  0.57110240  0.66200893  0.38420024  1.0
  O  O8104  1  0.57110240  0.82867560  0.38420024  1.0
  O  O8105  1  0.57110240  0.99534226  0.38420024  1.0
  O  O8106  1  0.65443573  0.16200893  0.38420024  1.0
  O  O8107  1  0.65443573  0.32867560  0.38420024  1.0
  O  O8108  1  0.65443573  0.49534226  0.38420024  1.0
  O  O8109  1  0.65443573  0.66200893  0.38420024  1.0
  O  O8110  1  0.65443573  0.82867560  0.38420024  1.0
  O  O8111  1  0.65443573  0.99534226  0.38420024  1.0
  O  O8112  1  0.73776906  0.16200893  0.38420024  1.0
  O  O8113  1  0.73776906  0.32867560  0.38420024  1.0
  O  O8114  1  0.73776906  0.49534226  0.38420024  1.0
  O  O8115  1  0.73776906  0.66200893  0.38420024  1.0
  O  O8116  1  0.73776906  0.82867560  0.38420024  1.0
  O  O8117  1  0.73776906  0.99534226  0.38420024  1.0
  O  O8118  1  0.82110240  0.16200893  0.38420024  1.0
  O  O8119  1  0.82110240  0.32867560  0.38420024  1.0
  O  O8120  1  0.82110240  0.49534226  0.38420024  1.0
  O  O8121  1  0.82110240  0.66200893  0.38420024  1.0
  O  O8122  1  0.82110240  0.82867560  0.38420024  1.0
  O  O8123  1  0.82110240  0.99534226  0.38420024  1.0
  O  O8124  1  0.90443573  0.16200893  0.38420024  1.0
  O  O8125  1  0.90443573  0.32867560  0.38420024  1.0
  O  O8126  1  0.90443573  0.49534226  0.38420024  1.0
  O  O8127  1  0.90443573  0.66200893  0.38420024  1.0
  O  O8128  1  0.90443573  0.82867560  0.38420024  1.0
  O  O8129  1  0.90443573  0.99534226  0.38420024  1.0
  O  O8130  1  0.98776906  0.16200893  0.38420024  1.0
  O  O8131  1  0.98776906  0.32867560  0.38420024  1.0
  O  O8132  1  0.98776906  0.49534226  0.38420024  1.0
  O  O8133  1  0.98776906  0.66200893  0.38420024  1.0
  O  O8134  1  0.98776906  0.82867560  0.38420024  1.0
  O  O8135  1  0.98776906  0.99534226  0.38420024  1.0
  O  O8136  1  0.04729287  0.15010417  0.45562881  1.0
  O  O8137  1  0.04729287  0.31677084  0.45562881  1.0
  O  O8138  1  0.04729287  0.48343750  0.45562881  1.0
  O  O8139  1  0.04729287  0.65010417  0.45562881  1.0
  O  O8140  1  0.04729287  0.81677084  0.45562881  1.0
  O  O8141  1  0.04729287  0.98343750  0.45562881  1.0
  O  O8142  1  0.13062621  0.15010417  0.45562881  1.0
  O  O8143  1  0.13062621  0.31677084  0.45562881  1.0
  O  O8144  1  0.13062621  0.48343750  0.45562881  1.0
  O  O8145  1  0.13062621  0.65010417  0.45562881  1.0
  O  O8146  1  0.13062621  0.81677084  0.45562881  1.0
  O  O8147  1  0.13062621  0.98343750  0.45562881  1.0
  O  O8148  1  0.21395954  0.15010417  0.45562881  1.0
  O  O8149  1  0.21395954  0.31677084  0.45562881  1.0
  O  O8150  1  0.21395954  0.48343750  0.45562881  1.0
  O  O8151  1  0.21395954  0.65010417  0.45562881  1.0
  O  O8152  1  0.21395954  0.81677084  0.45562881  1.0
  O  O8153  1  0.21395954  0.98343750  0.45562881  1.0
  O  O8154  1  0.29729287  0.15010417  0.45562881  1.0
  O  O8155  1  0.29729287  0.31677084  0.45562881  1.0
  O  O8156  1  0.29729287  0.48343750  0.45562881  1.0
  O  O8157  1  0.29729287  0.65010417  0.45562881  1.0
  O  O8158  1  0.29729287  0.81677084  0.45562881  1.0
  O  O8159  1  0.29729287  0.98343750  0.45562881  1.0
  O  O8160  1  0.38062621  0.15010417  0.45562881  1.0
  O  O8161  1  0.38062621  0.31677084  0.45562881  1.0
  O  O8162  1  0.38062621  0.48343750  0.45562881  1.0
  O  O8163  1  0.38062621  0.65010417  0.45562881  1.0
  O  O8164  1  0.38062621  0.81677084  0.45562881  1.0
  O  O8165  1  0.38062621  0.98343750  0.45562881  1.0
  O  O8166  1  0.46395954  0.15010417  0.45562881  1.0
  O  O8167  1  0.46395954  0.31677084  0.45562881  1.0
  O  O8168  1  0.46395954  0.48343750  0.45562881  1.0
  O  O8169  1  0.46395954  0.65010417  0.45562881  1.0
  O  O8170  1  0.46395954  0.81677084  0.45562881  1.0
  O  O8171  1  0.46395954  0.98343750  0.45562881  1.0
  O  O8172  1  0.54729287  0.15010417  0.45562881  1.0
  O  O8173  1  0.54729287  0.31677084  0.45562881  1.0
  O  O8174  1  0.54729287  0.48343750  0.45562881  1.0
  O  O8175  1  0.54729287  0.65010417  0.45562881  1.0
  O  O8176  1  0.54729287  0.81677084  0.45562881  1.0
  O  O8177  1  0.54729287  0.98343750  0.45562881  1.0
  O  O8178  1  0.63062621  0.15010417  0.45562881  1.0
  O  O8179  1  0.63062621  0.31677084  0.45562881  1.0
  O  O8180  1  0.63062621  0.48343750  0.45562881  1.0
  O  O8181  1  0.63062621  0.65010417  0.45562881  1.0
  O  O8182  1  0.63062621  0.81677084  0.45562881  1.0
  O  O8183  1  0.63062621  0.98343750  0.45562881  1.0
  O  O8184  1  0.71395954  0.15010417  0.45562881  1.0
  O  O8185  1  0.71395954  0.31677084  0.45562881  1.0
  O  O8186  1  0.71395954  0.48343750  0.45562881  1.0
  O  O8187  1  0.71395954  0.65010417  0.45562881  1.0
  O  O8188  1  0.71395954  0.81677084  0.45562881  1.0
  O  O8189  1  0.71395954  0.98343750  0.45562881  1.0
  O  O8190  1  0.79729287  0.15010417  0.45562881  1.0
  O  O8191  1  0.79729287  0.31677084  0.45562881  1.0
  O  O8192  1  0.79729287  0.48343750  0.45562881  1.0
  O  O8193  1  0.79729287  0.65010417  0.45562881  1.0
  O  O8194  1  0.79729287  0.81677084  0.45562881  1.0
  O  O8195  1  0.79729287  0.98343750  0.45562881  1.0
  O  O8196  1  0.88062621  0.15010417  0.45562881  1.0
  O  O8197  1  0.88062621  0.31677084  0.45562881  1.0
  O  O8198  1  0.88062621  0.48343750  0.45562881  1.0
  O  O8199  1  0.88062621  0.65010417  0.45562881  1.0
  O  O8200  1  0.88062621  0.81677084  0.45562881  1.0
  O  O8201  1  0.88062621  0.98343750  0.45562881  1.0
  O  O8202  1  0.96395954  0.15010417  0.45562881  1.0
  O  O8203  1  0.96395954  0.31677084  0.45562881  1.0
  O  O8204  1  0.96395954  0.48343750  0.45562881  1.0
  O  O8205  1  0.96395954  0.65010417  0.45562881  1.0
  O  O8206  1  0.96395954  0.81677084  0.45562881  1.0
  O  O8207  1  0.96395954  0.98343750  0.45562881  1.0
  O  O8208  1  0.07653547  0.14487424  0.49089958  1.0
  O  O8209  1  0.07653547  0.31154091  0.49089958  1.0
  O  O8210  1  0.07653547  0.47820758  0.49089958  1.0
  O  O8211  1  0.07653547  0.64487424  0.49089958  1.0
  O  O8212  1  0.07653547  0.81154091  0.49089958  1.0
  O  O8213  1  0.07653547  0.97820758  0.49089958  1.0
  O  O8214  1  0.15986880  0.14487424  0.49089958  1.0
  O  O8215  1  0.15986880  0.31154091  0.49089958  1.0
  O  O8216  1  0.15986880  0.47820758  0.49089958  1.0
  O  O8217  1  0.15986880  0.64487424  0.49089958  1.0
  O  O8218  1  0.15986880  0.81154091  0.49089958  1.0
  O  O8219  1  0.15986880  0.97820758  0.49089958  1.0
  O  O8220  1  0.24320213  0.14487424  0.49089958  1.0
  O  O8221  1  0.24320213  0.31154091  0.49089958  1.0
  O  O8222  1  0.24320213  0.47820758  0.49089958  1.0
  O  O8223  1  0.24320213  0.64487424  0.49089958  1.0
  O  O8224  1  0.24320213  0.81154091  0.49089958  1.0
  O  O8225  1  0.24320213  0.97820758  0.49089958  1.0
  O  O8226  1  0.32653547  0.14487424  0.49089958  1.0
  O  O8227  1  0.32653547  0.31154091  0.49089958  1.0
  O  O8228  1  0.32653547  0.47820758  0.49089958  1.0
  O  O8229  1  0.32653547  0.64487424  0.49089958  1.0
  O  O8230  1  0.32653547  0.81154091  0.49089958  1.0
  O  O8231  1  0.32653547  0.97820758  0.49089958  1.0
  O  O8232  1  0.40986880  0.14487424  0.49089958  1.0
  O  O8233  1  0.40986880  0.31154091  0.49089958  1.0
  O  O8234  1  0.40986880  0.47820758  0.49089958  1.0
  O  O8235  1  0.40986880  0.64487424  0.49089958  1.0
  O  O8236  1  0.40986880  0.81154091  0.49089958  1.0
  O  O8237  1  0.40986880  0.97820758  0.49089958  1.0
  O  O8238  1  0.49320213  0.14487424  0.49089958  1.0
  O  O8239  1  0.49320213  0.31154091  0.49089958  1.0
  O  O8240  1  0.49320213  0.47820758  0.49089958  1.0
  O  O8241  1  0.49320213  0.64487424  0.49089958  1.0
  O  O8242  1  0.49320213  0.81154091  0.49089958  1.0
  O  O8243  1  0.49320213  0.97820758  0.49089958  1.0
  O  O8244  1  0.57653547  0.14487424  0.49089958  1.0
  O  O8245  1  0.57653547  0.31154091  0.49089958  1.0
  O  O8246  1  0.57653547  0.47820758  0.49089958  1.0
  O  O8247  1  0.57653547  0.64487424  0.49089958  1.0
  O  O8248  1  0.57653547  0.81154091  0.49089958  1.0
  O  O8249  1  0.57653547  0.97820758  0.49089958  1.0
  O  O8250  1  0.65986880  0.14487424  0.49089958  1.0
  O  O8251  1  0.65986880  0.31154091  0.49089958  1.0
  O  O8252  1  0.65986880  0.47820758  0.49089958  1.0
  O  O8253  1  0.65986880  0.64487424  0.49089958  1.0
  O  O8254  1  0.65986880  0.81154091  0.49089958  1.0
  O  O8255  1  0.65986880  0.97820758  0.49089958  1.0
  O  O8256  1  0.74320213  0.14487424  0.49089958  1.0
  O  O8257  1  0.74320213  0.31154091  0.49089958  1.0
  O  O8258  1  0.74320213  0.47820758  0.49089958  1.0
  O  O8259  1  0.74320213  0.64487424  0.49089958  1.0
  O  O8260  1  0.74320213  0.81154091  0.49089958  1.0
  O  O8261  1  0.74320213  0.97820758  0.49089958  1.0
  O  O8262  1  0.82653547  0.14487424  0.49089958  1.0
  O  O8263  1  0.82653547  0.31154091  0.49089958  1.0
  O  O8264  1  0.82653547  0.47820758  0.49089958  1.0
  O  O8265  1  0.82653547  0.64487424  0.49089958  1.0
  O  O8266  1  0.82653547  0.81154091  0.49089958  1.0
  O  O8267  1  0.82653547  0.97820758  0.49089958  1.0
  O  O8268  1  0.90986880  0.14487424  0.49089958  1.0
  O  O8269  1  0.90986880  0.31154091  0.49089958  1.0
  O  O8270  1  0.90986880  0.47820758  0.49089958  1.0
  O  O8271  1  0.90986880  0.64487424  0.49089958  1.0
  O  O8272  1  0.90986880  0.81154091  0.49089958  1.0
  O  O8273  1  0.90986880  0.97820758  0.49089958  1.0
  O  O8274  1  0.99320213  0.14487424  0.49089958  1.0
  O  O8275  1  0.99320213  0.31154091  0.49089958  1.0
  O  O8276  1  0.99320213  0.47820758  0.49089958  1.0
  O  O8277  1  0.99320213  0.64487424  0.49089958  1.0
  O  O8278  1  0.99320213  0.81154091  0.49089958  1.0
  O  O8279  1  0.99320213  0.97820758  0.49089958  1.0
  O  O8280  1  0.01701166  0.15677900  0.41947101  1.0
  O  O8281  1  0.01701166  0.32344567  0.41947101  1.0
  O  O8282  1  0.01701166  0.49011234  0.41947101  1.0
  O  O8283  1  0.01701166  0.65677900  0.41947101  1.0
  O  O8284  1  0.01701166  0.82344567  0.41947101  1.0
  O  O8285  1  0.01701166  0.99011234  0.41947101  1.0
  O  O8286  1  0.10034499  0.15677900  0.41947101  1.0
  O  O8287  1  0.10034499  0.32344567  0.41947101  1.0
  O  O8288  1  0.10034499  0.49011234  0.41947101  1.0
  O  O8289  1  0.10034499  0.65677900  0.41947101  1.0
  O  O8290  1  0.10034499  0.82344567  0.41947101  1.0
  O  O8291  1  0.10034499  0.99011234  0.41947101  1.0
  O  O8292  1  0.18367833  0.15677900  0.41947101  1.0
  O  O8293  1  0.18367833  0.32344567  0.41947101  1.0
  O  O8294  1  0.18367833  0.49011234  0.41947101  1.0
  O  O8295  1  0.18367833  0.65677900  0.41947101  1.0
  O  O8296  1  0.18367833  0.82344567  0.41947101  1.0
  O  O8297  1  0.18367833  0.99011234  0.41947101  1.0
  O  O8298  1  0.26701166  0.15677900  0.41947101  1.0
  O  O8299  1  0.26701166  0.32344567  0.41947101  1.0
  O  O8300  1  0.26701166  0.49011234  0.41947101  1.0
  O  O8301  1  0.26701166  0.65677900  0.41947101  1.0
  O  O8302  1  0.26701166  0.82344567  0.41947101  1.0
  O  O8303  1  0.26701166  0.99011234  0.41947101  1.0
  O  O8304  1  0.35034499  0.15677900  0.41947101  1.0
  O  O8305  1  0.35034499  0.32344567  0.41947101  1.0
  O  O8306  1  0.35034499  0.49011234  0.41947101  1.0
  O  O8307  1  0.35034499  0.65677900  0.41947101  1.0
  O  O8308  1  0.35034499  0.82344567  0.41947101  1.0
  O  O8309  1  0.35034499  0.99011234  0.41947101  1.0
  O  O8310  1  0.43367833  0.15677900  0.41947101  1.0
  O  O8311  1  0.43367833  0.32344567  0.41947101  1.0
  O  O8312  1  0.43367833  0.49011234  0.41947101  1.0
  O  O8313  1  0.43367833  0.65677900  0.41947101  1.0
  O  O8314  1  0.43367833  0.82344567  0.41947101  1.0
  O  O8315  1  0.43367833  0.99011234  0.41947101  1.0
  O  O8316  1  0.51701166  0.15677900  0.41947101  1.0
  O  O8317  1  0.51701166  0.32344567  0.41947101  1.0
  O  O8318  1  0.51701166  0.49011234  0.41947101  1.0
  O  O8319  1  0.51701166  0.65677900  0.41947101  1.0
  O  O8320  1  0.51701166  0.82344567  0.41947101  1.0
  O  O8321  1  0.51701166  0.99011234  0.41947101  1.0
  O  O8322  1  0.60034499  0.15677900  0.41947101  1.0
  O  O8323  1  0.60034499  0.32344567  0.41947101  1.0
  O  O8324  1  0.60034499  0.49011234  0.41947101  1.0
  O  O8325  1  0.60034499  0.65677900  0.41947101  1.0
  O  O8326  1  0.60034499  0.82344567  0.41947101  1.0
  O  O8327  1  0.60034499  0.99011234  0.41947101  1.0
  O  O8328  1  0.68367833  0.15677900  0.41947101  1.0
  O  O8329  1  0.68367833  0.32344567  0.41947101  1.0
  O  O8330  1  0.68367833  0.49011234  0.41947101  1.0
  O  O8331  1  0.68367833  0.65677900  0.41947101  1.0
  O  O8332  1  0.68367833  0.82344567  0.41947101  1.0
  O  O8333  1  0.68367833  0.99011234  0.41947101  1.0
  O  O8334  1  0.76701166  0.15677900  0.41947101  1.0
  O  O8335  1  0.76701166  0.32344567  0.41947101  1.0
  O  O8336  1  0.76701166  0.49011234  0.41947101  1.0
  O  O8337  1  0.76701166  0.65677900  0.41947101  1.0
  O  O8338  1  0.76701166  0.82344567  0.41947101  1.0
  O  O8339  1  0.76701166  0.99011234  0.41947101  1.0
  O  O8340  1  0.85034499  0.15677900  0.41947101  1.0
  O  O8341  1  0.85034499  0.32344567  0.41947101  1.0
  O  O8342  1  0.85034499  0.49011234  0.41947101  1.0
  O  O8343  1  0.85034499  0.65677900  0.41947101  1.0
  O  O8344  1  0.85034499  0.82344567  0.41947101  1.0
  O  O8345  1  0.85034499  0.99011234  0.41947101  1.0
  O  O8346  1  0.93367833  0.15677900  0.41947101  1.0
  O  O8347  1  0.93367833  0.32344567  0.41947101  1.0
  O  O8348  1  0.93367833  0.49011234  0.41947101  1.0
  O  O8349  1  0.93367833  0.65677900  0.41947101  1.0
  O  O8350  1  0.93367833  0.82344567  0.41947101  1.0
  O  O8351  1  0.93367833  0.99011234  0.41947101  1.0
  O  O8352  1  0.03799148  0.04697241  0.35744352  1.0
  O  O8353  1  0.03799148  0.21363908  0.35744352  1.0
  O  O8354  1  0.03799148  0.38030574  0.35744352  1.0
  O  O8355  1  0.03799148  0.54697241  0.35744352  1.0
  O  O8356  1  0.03799148  0.71363908  0.35744352  1.0
  O  O8357  1  0.03799148  0.88030574  0.35744352  1.0
  O  O8358  1  0.12132481  0.04697241  0.35744352  1.0
  O  O8359  1  0.12132481  0.21363908  0.35744352  1.0
  O  O8360  1  0.12132481  0.38030574  0.35744352  1.0
  O  O8361  1  0.12132481  0.54697241  0.35744352  1.0
  O  O8362  1  0.12132481  0.71363908  0.35744352  1.0
  O  O8363  1  0.12132481  0.88030574  0.35744352  1.0
  O  O8364  1  0.20465815  0.04697241  0.35744352  1.0
  O  O8365  1  0.20465815  0.21363908  0.35744352  1.0
  O  O8366  1  0.20465815  0.38030574  0.35744352  1.0
  O  O8367  1  0.20465815  0.54697241  0.35744352  1.0
  O  O8368  1  0.20465815  0.71363908  0.35744352  1.0
  O  O8369  1  0.20465815  0.88030574  0.35744352  1.0
  O  O8370  1  0.28799148  0.04697241  0.35744352  1.0
  O  O8371  1  0.28799148  0.21363908  0.35744352  1.0
  O  O8372  1  0.28799148  0.38030574  0.35744352  1.0
  O  O8373  1  0.28799148  0.54697241  0.35744352  1.0
  O  O8374  1  0.28799148  0.71363908  0.35744352  1.0
  O  O8375  1  0.28799148  0.88030574  0.35744352  1.0
  O  O8376  1  0.37132481  0.04697241  0.35744352  1.0
  O  O8377  1  0.37132481  0.21363908  0.35744352  1.0
  O  O8378  1  0.37132481  0.38030574  0.35744352  1.0
  O  O8379  1  0.37132481  0.54697241  0.35744352  1.0
  O  O8380  1  0.37132481  0.71363908  0.35744352  1.0
  O  O8381  1  0.37132481  0.88030574  0.35744352  1.0
  O  O8382  1  0.45465815  0.04697241  0.35744352  1.0
  O  O8383  1  0.45465815  0.21363908  0.35744352  1.0
  O  O8384  1  0.45465815  0.38030574  0.35744352  1.0
  O  O8385  1  0.45465815  0.54697241  0.35744352  1.0
  O  O8386  1  0.45465815  0.71363908  0.35744352  1.0
  O  O8387  1  0.45465815  0.88030574  0.35744352  1.0
  O  O8388  1  0.53799148  0.04697241  0.35744352  1.0
  O  O8389  1  0.53799148  0.21363908  0.35744352  1.0
  O  O8390  1  0.53799148  0.38030574  0.35744352  1.0
  O  O8391  1  0.53799148  0.54697241  0.35744352  1.0
  O  O8392  1  0.53799148  0.71363908  0.35744352  1.0
  O  O8393  1  0.53799148  0.88030574  0.35744352  1.0
  O  O8394  1  0.62132481  0.04697241  0.35744352  1.0
  O  O8395  1  0.62132481  0.21363908  0.35744352  1.0
  O  O8396  1  0.62132481  0.38030574  0.35744352  1.0
  O  O8397  1  0.62132481  0.54697241  0.35744352  1.0
  O  O8398  1  0.62132481  0.71363908  0.35744352  1.0
  O  O8399  1  0.62132481  0.88030574  0.35744352  1.0
  O  O8400  1  0.70465815  0.04697241  0.35744352  1.0
  O  O8401  1  0.70465815  0.21363908  0.35744352  1.0
  O  O8402  1  0.70465815  0.38030574  0.35744352  1.0
  O  O8403  1  0.70465815  0.54697241  0.35744352  1.0
  O  O8404  1  0.70465815  0.71363908  0.35744352  1.0
  O  O8405  1  0.70465815  0.88030574  0.35744352  1.0
  O  O8406  1  0.78799148  0.04697241  0.35744352  1.0
  O  O8407  1  0.78799148  0.21363908  0.35744352  1.0
  O  O8408  1  0.78799148  0.38030574  0.35744352  1.0
  O  O8409  1  0.78799148  0.54697241  0.35744352  1.0
  O  O8410  1  0.78799148  0.71363908  0.35744352  1.0
  O  O8411  1  0.78799148  0.88030574  0.35744352  1.0
  O  O8412  1  0.87132481  0.04697241  0.35744352  1.0
  O  O8413  1  0.87132481  0.21363908  0.35744352  1.0
  O  O8414  1  0.87132481  0.38030574  0.35744352  1.0
  O  O8415  1  0.87132481  0.54697241  0.35744352  1.0
  O  O8416  1  0.87132481  0.71363908  0.35744352  1.0
  O  O8417  1  0.87132481  0.88030574  0.35744352  1.0
  O  O8418  1  0.95465815  0.04697241  0.35744352  1.0
  O  O8419  1  0.95465815  0.21363908  0.35744352  1.0
  O  O8420  1  0.95465815  0.38030574  0.35744352  1.0
  O  O8421  1  0.95465815  0.54697241  0.35744352  1.0
  O  O8422  1  0.95465815  0.71363908  0.35744352  1.0
  O  O8423  1  0.95465815  0.88030574  0.35744352  1.0
  O  O8424  1  0.01418196  0.03506765  0.42887209  1.0
  O  O8425  1  0.01418196  0.20173432  0.42887209  1.0
  O  O8426  1  0.01418196  0.36840098  0.42887209  1.0
  O  O8427  1  0.01418196  0.53506765  0.42887209  1.0
  O  O8428  1  0.01418196  0.70173432  0.42887209  1.0
  O  O8429  1  0.01418196  0.86840098  0.42887209  1.0
  O  O8430  1  0.09751529  0.03506765  0.42887209  1.0
  O  O8431  1  0.09751529  0.20173432  0.42887209  1.0
  O  O8432  1  0.09751529  0.36840098  0.42887209  1.0
  O  O8433  1  0.09751529  0.53506765  0.42887209  1.0
  O  O8434  1  0.09751529  0.70173432  0.42887209  1.0
  O  O8435  1  0.09751529  0.86840098  0.42887209  1.0
  O  O8436  1  0.18084862  0.03506765  0.42887209  1.0
  O  O8437  1  0.18084862  0.20173432  0.42887209  1.0
  O  O8438  1  0.18084862  0.36840098  0.42887209  1.0
  O  O8439  1  0.18084862  0.53506765  0.42887209  1.0
  O  O8440  1  0.18084862  0.70173432  0.42887209  1.0
  O  O8441  1  0.18084862  0.86840098  0.42887209  1.0
  O  O8442  1  0.26418196  0.03506765  0.42887209  1.0
  O  O8443  1  0.26418196  0.20173432  0.42887209  1.0
  O  O8444  1  0.26418196  0.36840098  0.42887209  1.0
  O  O8445  1  0.26418196  0.53506765  0.42887209  1.0
  O  O8446  1  0.26418196  0.70173432  0.42887209  1.0
  O  O8447  1  0.26418196  0.86840098  0.42887209  1.0
  O  O8448  1  0.34751529  0.03506765  0.42887209  1.0
  O  O8449  1  0.34751529  0.20173432  0.42887209  1.0
  O  O8450  1  0.34751529  0.36840098  0.42887209  1.0
  O  O8451  1  0.34751529  0.53506765  0.42887209  1.0
  O  O8452  1  0.34751529  0.70173432  0.42887209  1.0
  O  O8453  1  0.34751529  0.86840098  0.42887209  1.0
  O  O8454  1  0.43084862  0.03506765  0.42887209  1.0
  O  O8455  1  0.43084862  0.20173432  0.42887209  1.0
  O  O8456  1  0.43084862  0.36840098  0.42887209  1.0
  O  O8457  1  0.43084862  0.53506765  0.42887209  1.0
  O  O8458  1  0.43084862  0.70173432  0.42887209  1.0
  O  O8459  1  0.43084862  0.86840098  0.42887209  1.0
  O  O8460  1  0.51418196  0.03506765  0.42887209  1.0
  O  O8461  1  0.51418196  0.20173432  0.42887209  1.0
  O  O8462  1  0.51418196  0.36840098  0.42887209  1.0
  O  O8463  1  0.51418196  0.53506765  0.42887209  1.0
  O  O8464  1  0.51418196  0.70173432  0.42887209  1.0
  O  O8465  1  0.51418196  0.86840098  0.42887209  1.0
  O  O8466  1  0.59751529  0.03506765  0.42887209  1.0
  O  O8467  1  0.59751529  0.20173432  0.42887209  1.0
  O  O8468  1  0.59751529  0.36840098  0.42887209  1.0
  O  O8469  1  0.59751529  0.53506765  0.42887209  1.0
  O  O8470  1  0.59751529  0.70173432  0.42887209  1.0
  O  O8471  1  0.59751529  0.86840098  0.42887209  1.0
  O  O8472  1  0.68084862  0.03506765  0.42887209  1.0
  O  O8473  1  0.68084862  0.20173432  0.42887209  1.0
  O  O8474  1  0.68084862  0.36840098  0.42887209  1.0
  O  O8475  1  0.68084862  0.53506765  0.42887209  1.0
  O  O8476  1  0.68084862  0.70173432  0.42887209  1.0
  O  O8477  1  0.68084862  0.86840098  0.42887209  1.0
  O  O8478  1  0.76418196  0.03506765  0.42887209  1.0
  O  O8479  1  0.76418196  0.20173432  0.42887209  1.0
  O  O8480  1  0.76418196  0.36840098  0.42887209  1.0
  O  O8481  1  0.76418196  0.53506765  0.42887209  1.0
  O  O8482  1  0.76418196  0.70173432  0.42887209  1.0
  O  O8483  1  0.76418196  0.86840098  0.42887209  1.0
  O  O8484  1  0.84751529  0.03506765  0.42887209  1.0
  O  O8485  1  0.84751529  0.20173432  0.42887209  1.0
  O  O8486  1  0.84751529  0.36840098  0.42887209  1.0
  O  O8487  1  0.84751529  0.53506765  0.42887209  1.0
  O  O8488  1  0.84751529  0.70173432  0.42887209  1.0
  O  O8489  1  0.84751529  0.86840098  0.42887209  1.0
  O  O8490  1  0.93084862  0.03506765  0.42887209  1.0
  O  O8491  1  0.93084862  0.20173432  0.42887209  1.0
  O  O8492  1  0.93084862  0.36840098  0.42887209  1.0
  O  O8493  1  0.93084862  0.53506765  0.42887209  1.0
  O  O8494  1  0.93084862  0.70173432  0.42887209  1.0
  O  O8495  1  0.93084862  0.86840098  0.42887209  1.0
  O  O8496  1  0.03544787  0.09354168  0.36946965  1.0
  O  O8497  1  0.03544787  0.26020835  0.36946965  1.0
  O  O8498  1  0.03544787  0.42687502  0.36946965  1.0
  O  O8499  1  0.03544787  0.59354168  0.36946965  1.0
  O  O8500  1  0.03544787  0.76020835  0.36946965  1.0
  O  O8501  1  0.03544787  0.92687502  0.36946965  1.0
  O  O8502  1  0.11878120  0.09354168  0.36946965  1.0
  O  O8503  1  0.11878120  0.26020835  0.36946965  1.0
  O  O8504  1  0.11878120  0.42687502  0.36946965  1.0
  O  O8505  1  0.11878120  0.59354168  0.36946965  1.0
  O  O8506  1  0.11878120  0.76020835  0.36946965  1.0
  O  O8507  1  0.11878120  0.92687502  0.36946965  1.0
  O  O8508  1  0.20211453  0.09354168  0.36946965  1.0
  O  O8509  1  0.20211453  0.26020835  0.36946965  1.0
  O  O8510  1  0.20211453  0.42687502  0.36946965  1.0
  O  O8511  1  0.20211453  0.59354168  0.36946965  1.0
  O  O8512  1  0.20211453  0.76020835  0.36946965  1.0
  O  O8513  1  0.20211453  0.92687502  0.36946965  1.0
  O  O8514  1  0.28544787  0.09354168  0.36946965  1.0
  O  O8515  1  0.28544787  0.26020835  0.36946965  1.0
  O  O8516  1  0.28544787  0.42687502  0.36946965  1.0
  O  O8517  1  0.28544787  0.59354168  0.36946965  1.0
  O  O8518  1  0.28544787  0.76020835  0.36946965  1.0
  O  O8519  1  0.28544787  0.92687502  0.36946965  1.0
  O  O8520  1  0.36878120  0.09354168  0.36946965  1.0
  O  O8521  1  0.36878120  0.26020835  0.36946965  1.0
  O  O8522  1  0.36878120  0.42687502  0.36946965  1.0
  O  O8523  1  0.36878120  0.59354168  0.36946965  1.0
  O  O8524  1  0.36878120  0.76020835  0.36946965  1.0
  O  O8525  1  0.36878120  0.92687502  0.36946965  1.0
  O  O8526  1  0.45211453  0.09354168  0.36946965  1.0
  O  O8527  1  0.45211453  0.26020835  0.36946965  1.0
  O  O8528  1  0.45211453  0.42687502  0.36946965  1.0
  O  O8529  1  0.45211453  0.59354168  0.36946965  1.0
  O  O8530  1  0.45211453  0.76020835  0.36946965  1.0
  O  O8531  1  0.45211453  0.92687502  0.36946965  1.0
  O  O8532  1  0.53544787  0.09354168  0.36946965  1.0
  O  O8533  1  0.53544787  0.26020835  0.36946965  1.0
  O  O8534  1  0.53544787  0.42687502  0.36946965  1.0
  O  O8535  1  0.53544787  0.59354168  0.36946965  1.0
  O  O8536  1  0.53544787  0.76020835  0.36946965  1.0
  O  O8537  1  0.53544787  0.92687502  0.36946965  1.0
  O  O8538  1  0.61878120  0.09354168  0.36946965  1.0
  O  O8539  1  0.61878120  0.26020835  0.36946965  1.0
  O  O8540  1  0.61878120  0.42687502  0.36946965  1.0
  O  O8541  1  0.61878120  0.59354168  0.36946965  1.0
  O  O8542  1  0.61878120  0.76020835  0.36946965  1.0
  O  O8543  1  0.61878120  0.92687502  0.36946965  1.0
  O  O8544  1  0.70211453  0.09354168  0.36946965  1.0
  O  O8545  1  0.70211453  0.26020835  0.36946965  1.0
  O  O8546  1  0.70211453  0.42687502  0.36946965  1.0
  O  O8547  1  0.70211453  0.59354168  0.36946965  1.0
  O  O8548  1  0.70211453  0.76020835  0.36946965  1.0
  O  O8549  1  0.70211453  0.92687502  0.36946965  1.0
  O  O8550  1  0.78544787  0.09354168  0.36946965  1.0
  O  O8551  1  0.78544787  0.26020835  0.36946965  1.0
  O  O8552  1  0.78544787  0.42687502  0.36946965  1.0
  O  O8553  1  0.78544787  0.59354168  0.36946965  1.0
  O  O8554  1  0.78544787  0.76020835  0.36946965  1.0
  O  O8555  1  0.78544787  0.92687502  0.36946965  1.0
  O  O8556  1  0.86878120  0.09354168  0.36946965  1.0
  O  O8557  1  0.86878120  0.26020835  0.36946965  1.0
  O  O8558  1  0.86878120  0.42687502  0.36946965  1.0
  O  O8559  1  0.86878120  0.59354168  0.36946965  1.0
  O  O8560  1  0.86878120  0.76020835  0.36946965  1.0
  O  O8561  1  0.86878120  0.92687502  0.36946965  1.0
  O  O8562  1  0.95211453  0.09354168  0.36946965  1.0
  O  O8563  1  0.95211453  0.26020835  0.36946965  1.0
  O  O8564  1  0.95211453  0.42687502  0.36946965  1.0
  O  O8565  1  0.95211453  0.59354168  0.36946965  1.0
  O  O8566  1  0.95211453  0.76020835  0.36946965  1.0
  O  O8567  1  0.95211453  0.92687502  0.36946965  1.0
  O  O8568  1  0.01163834  0.08163692  0.44089822  1.0
  O  O8569  1  0.01163834  0.24830359  0.44089822  1.0
  O  O8570  1  0.01163834  0.41497026  0.44089822  1.0
  O  O8571  1  0.01163834  0.58163692  0.44089822  1.0
  O  O8572  1  0.01163834  0.74830359  0.44089822  1.0
  O  O8573  1  0.01163834  0.91497026  0.44089822  1.0
  O  O8574  1  0.09497168  0.08163692  0.44089822  1.0
  O  O8575  1  0.09497168  0.24830359  0.44089822  1.0
  O  O8576  1  0.09497168  0.41497026  0.44089822  1.0
  O  O8577  1  0.09497168  0.58163692  0.44089822  1.0
  O  O8578  1  0.09497168  0.74830359  0.44089822  1.0
  O  O8579  1  0.09497168  0.91497026  0.44089822  1.0
  O  O8580  1  0.17830501  0.08163692  0.44089822  1.0
  O  O8581  1  0.17830501  0.24830359  0.44089822  1.0
  O  O8582  1  0.17830501  0.41497026  0.44089822  1.0
  O  O8583  1  0.17830501  0.58163692  0.44089822  1.0
  O  O8584  1  0.17830501  0.74830359  0.44089822  1.0
  O  O8585  1  0.17830501  0.91497026  0.44089822  1.0
  O  O8586  1  0.26163834  0.08163692  0.44089822  1.0
  O  O8587  1  0.26163834  0.24830359  0.44089822  1.0
  O  O8588  1  0.26163834  0.41497026  0.44089822  1.0
  O  O8589  1  0.26163834  0.58163692  0.44089822  1.0
  O  O8590  1  0.26163834  0.74830359  0.44089822  1.0
  O  O8591  1  0.26163834  0.91497026  0.44089822  1.0
  O  O8592  1  0.34497168  0.08163692  0.44089822  1.0
  O  O8593  1  0.34497168  0.24830359  0.44089822  1.0
  O  O8594  1  0.34497168  0.41497026  0.44089822  1.0
  O  O8595  1  0.34497168  0.58163692  0.44089822  1.0
  O  O8596  1  0.34497168  0.74830359  0.44089822  1.0
  O  O8597  1  0.34497168  0.91497026  0.44089822  1.0
  O  O8598  1  0.42830501  0.08163692  0.44089822  1.0
  O  O8599  1  0.42830501  0.24830359  0.44089822  1.0
  O  O8600  1  0.42830501  0.41497026  0.44089822  1.0
  O  O8601  1  0.42830501  0.58163692  0.44089822  1.0
  O  O8602  1  0.42830501  0.74830359  0.44089822  1.0
  O  O8603  1  0.42830501  0.91497026  0.44089822  1.0
  O  O8604  1  0.51163834  0.08163692  0.44089822  1.0
  O  O8605  1  0.51163834  0.24830359  0.44089822  1.0
  O  O8606  1  0.51163834  0.41497026  0.44089822  1.0
  O  O8607  1  0.51163834  0.58163692  0.44089822  1.0
  O  O8608  1  0.51163834  0.74830359  0.44089822  1.0
  O  O8609  1  0.51163834  0.91497026  0.44089822  1.0
  O  O8610  1  0.59497168  0.08163692  0.44089822  1.0
  O  O8611  1  0.59497168  0.24830359  0.44089822  1.0
  O  O8612  1  0.59497168  0.41497026  0.44089822  1.0
  O  O8613  1  0.59497168  0.58163692  0.44089822  1.0
  O  O8614  1  0.59497168  0.74830359  0.44089822  1.0
  O  O8615  1  0.59497168  0.91497026  0.44089822  1.0
  O  O8616  1  0.67830501  0.08163692  0.44089822  1.0
  O  O8617  1  0.67830501  0.24830359  0.44089822  1.0
  O  O8618  1  0.67830501  0.41497026  0.44089822  1.0
  O  O8619  1  0.67830501  0.58163692  0.44089822  1.0
  O  O8620  1  0.67830501  0.74830359  0.44089822  1.0
  O  O8621  1  0.67830501  0.91497026  0.44089822  1.0
  O  O8622  1  0.76163834  0.08163692  0.44089822  1.0
  O  O8623  1  0.76163834  0.24830359  0.44089822  1.0
  O  O8624  1  0.76163834  0.41497026  0.44089822  1.0
  O  O8625  1  0.76163834  0.58163692  0.44089822  1.0
  O  O8626  1  0.76163834  0.74830359  0.44089822  1.0
  O  O8627  1  0.76163834  0.91497026  0.44089822  1.0
  O  O8628  1  0.84497168  0.08163692  0.44089822  1.0
  O  O8629  1  0.84497168  0.24830359  0.44089822  1.0
  O  O8630  1  0.84497168  0.41497026  0.44089822  1.0
  O  O8631  1  0.84497168  0.58163692  0.44089822  1.0
  O  O8632  1  0.84497168  0.74830359  0.44089822  1.0
  O  O8633  1  0.84497168  0.91497026  0.44089822  1.0
  O  O8634  1  0.92830501  0.08163692  0.44089822  1.0
  O  O8635  1  0.92830501  0.24830359  0.44089822  1.0
  O  O8636  1  0.92830501  0.41497026  0.44089822  1.0
  O  O8637  1  0.92830501  0.58163692  0.44089822  1.0
  O  O8638  1  0.92830501  0.74830359  0.44089822  1.0
  O  O8639  1  0.92830501  0.91497026  0.44089822  1.0
  O  O8640  1  0.03370685  0.00086609  0.49588890  1.0
  O  O8641  1  0.03370685  0.16753275  0.49588890  1.0
  O  O8642  1  0.03370685  0.33419942  0.49588890  1.0
  O  O8643  1  0.03370685  0.50086609  0.49588890  1.0
  O  O8644  1  0.03370685  0.66753275  0.49588890  1.0
  O  O8645  1  0.03370685  0.83419942  0.49588890  1.0
  O  O8646  1  0.11704018  0.00086609  0.49588890  1.0
  O  O8647  1  0.11704018  0.16753275  0.49588890  1.0
  O  O8648  1  0.11704018  0.33419942  0.49588890  1.0
  O  O8649  1  0.11704018  0.50086609  0.49588890  1.0
  O  O8650  1  0.11704018  0.66753275  0.49588890  1.0
  O  O8651  1  0.11704018  0.83419942  0.49588890  1.0
  O  O8652  1  0.20037351  0.00086609  0.49588890  1.0
  O  O8653  1  0.20037351  0.16753275  0.49588890  1.0
  O  O8654  1  0.20037351  0.33419942  0.49588890  1.0
  O  O8655  1  0.20037351  0.50086609  0.49588890  1.0
  O  O8656  1  0.20037351  0.66753275  0.49588890  1.0
  O  O8657  1  0.20037351  0.83419942  0.49588890  1.0
  O  O8658  1  0.28370685  0.00086609  0.49588890  1.0
  O  O8659  1  0.28370685  0.16753275  0.49588890  1.0
  O  O8660  1  0.28370685  0.33419942  0.49588890  1.0
  O  O8661  1  0.28370685  0.50086609  0.49588890  1.0
  O  O8662  1  0.28370685  0.66753275  0.49588890  1.0
  O  O8663  1  0.28370685  0.83419942  0.49588890  1.0
  O  O8664  1  0.36704018  0.00086609  0.49588890  1.0
  O  O8665  1  0.36704018  0.16753275  0.49588890  1.0
  O  O8666  1  0.36704018  0.33419942  0.49588890  1.0
  O  O8667  1  0.36704018  0.50086609  0.49588890  1.0
  O  O8668  1  0.36704018  0.66753275  0.49588890  1.0
  O  O8669  1  0.36704018  0.83419942  0.49588890  1.0
  O  O8670  1  0.45037351  0.00086609  0.49588890  1.0
  O  O8671  1  0.45037351  0.16753275  0.49588890  1.0
  O  O8672  1  0.45037351  0.33419942  0.49588890  1.0
  O  O8673  1  0.45037351  0.50086609  0.49588890  1.0
  O  O8674  1  0.45037351  0.66753275  0.49588890  1.0
  O  O8675  1  0.45037351  0.83419942  0.49588890  1.0
  O  O8676  1  0.53370685  0.00086609  0.49588890  1.0
  O  O8677  1  0.53370685  0.16753275  0.49588890  1.0
  O  O8678  1  0.53370685  0.33419942  0.49588890  1.0
  O  O8679  1  0.53370685  0.50086609  0.49588890  1.0
  O  O8680  1  0.53370685  0.66753275  0.49588890  1.0
  O  O8681  1  0.53370685  0.83419942  0.49588890  1.0
  O  O8682  1  0.61704018  0.00086609  0.49588890  1.0
  O  O8683  1  0.61704018  0.16753275  0.49588890  1.0
  O  O8684  1  0.61704018  0.33419942  0.49588890  1.0
  O  O8685  1  0.61704018  0.50086609  0.49588890  1.0
  O  O8686  1  0.61704018  0.66753275  0.49588890  1.0
  O  O8687  1  0.61704018  0.83419942  0.49588890  1.0
  O  O8688  1  0.70037351  0.00086609  0.49588890  1.0
  O  O8689  1  0.70037351  0.16753275  0.49588890  1.0
  O  O8690  1  0.70037351  0.33419942  0.49588890  1.0
  O  O8691  1  0.70037351  0.50086609  0.49588890  1.0
  O  O8692  1  0.70037351  0.66753275  0.49588890  1.0
  O  O8693  1  0.70037351  0.83419942  0.49588890  1.0
  O  O8694  1  0.78370685  0.00086609  0.49588890  1.0
  O  O8695  1  0.78370685  0.16753275  0.49588890  1.0
  O  O8696  1  0.78370685  0.33419942  0.49588890  1.0
  O  O8697  1  0.78370685  0.50086609  0.49588890  1.0
  O  O8698  1  0.78370685  0.66753275  0.49588890  1.0
  O  O8699  1  0.78370685  0.83419942  0.49588890  1.0
  O  O8700  1  0.86704018  0.00086609  0.49588890  1.0
  O  O8701  1  0.86704018  0.16753275  0.49588890  1.0
  O  O8702  1  0.86704018  0.33419942  0.49588890  1.0
  O  O8703  1  0.86704018  0.50086609  0.49588890  1.0
  O  O8704  1  0.86704018  0.66753275  0.49588890  1.0
  O  O8705  1  0.86704018  0.83419942  0.49588890  1.0
  O  O8706  1  0.95037351  0.00086609  0.49588890  1.0
  O  O8707  1  0.95037351  0.16753275  0.49588890  1.0
  O  O8708  1  0.95037351  0.33419942  0.49588890  1.0
  O  O8709  1  0.95037351  0.50086609  0.49588890  1.0
  O  O8710  1  0.95037351  0.66753275  0.49588890  1.0
  O  O8711  1  0.95037351  0.83419942  0.49588890  1.0
  O  O8712  1  0.05751637  0.01277085  0.42446032  1.0
  O  O8713  1  0.05751637  0.17943752  0.42446032  1.0
  O  O8714  1  0.05751637  0.34610418  0.42446032  1.0
  O  O8715  1  0.05751637  0.51277085  0.42446032  1.0
  O  O8716  1  0.05751637  0.67943752  0.42446032  1.0
  O  O8717  1  0.05751637  0.84610418  0.42446032  1.0
  O  O8718  1  0.14084970  0.01277085  0.42446032  1.0
  O  O8719  1  0.14084970  0.17943752  0.42446032  1.0
  O  O8720  1  0.14084970  0.34610418  0.42446032  1.0
  O  O8721  1  0.14084970  0.51277085  0.42446032  1.0
  O  O8722  1  0.14084970  0.67943752  0.42446032  1.0
  O  O8723  1  0.14084970  0.84610418  0.42446032  1.0
  O  O8724  1  0.22418304  0.01277085  0.42446032  1.0
  O  O8725  1  0.22418304  0.17943752  0.42446032  1.0
  O  O8726  1  0.22418304  0.34610418  0.42446032  1.0
  O  O8727  1  0.22418304  0.51277085  0.42446032  1.0
  O  O8728  1  0.22418304  0.67943752  0.42446032  1.0
  O  O8729  1  0.22418304  0.84610418  0.42446032  1.0
  O  O8730  1  0.30751637  0.01277085  0.42446032  1.0
  O  O8731  1  0.30751637  0.17943752  0.42446032  1.0
  O  O8732  1  0.30751637  0.34610418  0.42446032  1.0
  O  O8733  1  0.30751637  0.51277085  0.42446032  1.0
  O  O8734  1  0.30751637  0.67943752  0.42446032  1.0
  O  O8735  1  0.30751637  0.84610418  0.42446032  1.0
  O  O8736  1  0.39084970  0.01277085  0.42446032  1.0
  O  O8737  1  0.39084970  0.17943752  0.42446032  1.0
  O  O8738  1  0.39084970  0.34610418  0.42446032  1.0
  O  O8739  1  0.39084970  0.51277085  0.42446032  1.0
  O  O8740  1  0.39084970  0.67943752  0.42446032  1.0
  O  O8741  1  0.39084970  0.84610418  0.42446032  1.0
  O  O8742  1  0.47418304  0.01277085  0.42446032  1.0
  O  O8743  1  0.47418304  0.17943752  0.42446032  1.0
  O  O8744  1  0.47418304  0.34610418  0.42446032  1.0
  O  O8745  1  0.47418304  0.51277085  0.42446032  1.0
  O  O8746  1  0.47418304  0.67943752  0.42446032  1.0
  O  O8747  1  0.47418304  0.84610418  0.42446032  1.0
  O  O8748  1  0.55751637  0.01277085  0.42446032  1.0
  O  O8749  1  0.55751637  0.17943752  0.42446032  1.0
  O  O8750  1  0.55751637  0.34610418  0.42446032  1.0
  O  O8751  1  0.55751637  0.51277085  0.42446032  1.0
  O  O8752  1  0.55751637  0.67943752  0.42446032  1.0
  O  O8753  1  0.55751637  0.84610418  0.42446032  1.0
  O  O8754  1  0.64084970  0.01277085  0.42446032  1.0
  O  O8755  1  0.64084970  0.17943752  0.42446032  1.0
  O  O8756  1  0.64084970  0.34610418  0.42446032  1.0
  O  O8757  1  0.64084970  0.51277085  0.42446032  1.0
  O  O8758  1  0.64084970  0.67943752  0.42446032  1.0
  O  O8759  1  0.64084970  0.84610418  0.42446032  1.0
  O  O8760  1  0.72418304  0.01277085  0.42446032  1.0
  O  O8761  1  0.72418304  0.17943752  0.42446032  1.0
  O  O8762  1  0.72418304  0.34610418  0.42446032  1.0
  O  O8763  1  0.72418304  0.51277085  0.42446032  1.0
  O  O8764  1  0.72418304  0.67943752  0.42446032  1.0
  O  O8765  1  0.72418304  0.84610418  0.42446032  1.0
  O  O8766  1  0.80751637  0.01277085  0.42446032  1.0
  O  O8767  1  0.80751637  0.17943752  0.42446032  1.0
  O  O8768  1  0.80751637  0.34610418  0.42446032  1.0
  O  O8769  1  0.80751637  0.51277085  0.42446032  1.0
  O  O8770  1  0.80751637  0.67943752  0.42446032  1.0
  O  O8771  1  0.80751637  0.84610418  0.42446032  1.0
  O  O8772  1  0.89084970  0.01277085  0.42446032  1.0
  O  O8773  1  0.89084970  0.17943752  0.42446032  1.0
  O  O8774  1  0.89084970  0.34610418  0.42446032  1.0
  O  O8775  1  0.89084970  0.51277085  0.42446032  1.0
  O  O8776  1  0.89084970  0.67943752  0.42446032  1.0
  O  O8777  1  0.89084970  0.84610418  0.42446032  1.0
  O  O8778  1  0.97418304  0.01277085  0.42446032  1.0
  O  O8779  1  0.97418304  0.17943752  0.42446032  1.0
  O  O8780  1  0.97418304  0.34610418  0.42446032  1.0
  O  O8781  1  0.97418304  0.51277085  0.42446032  1.0
  O  O8782  1  0.97418304  0.67943752  0.42446032  1.0
  O  O8783  1  0.97418304  0.84610418  0.42446032  1.0
  O  O8784  1  0.08082505  0.09903147  0.48154244  1.0
  O  O8785  1  0.08082505  0.26569813  0.48154244  1.0
  O  O8786  1  0.08082505  0.43236480  0.48154244  1.0
  O  O8787  1  0.08082505  0.59903147  0.48154244  1.0
  O  O8788  1  0.08082505  0.76569813  0.48154244  1.0
  O  O8789  1  0.08082505  0.93236480  0.48154244  1.0
  O  O8790  1  0.16415839  0.09903147  0.48154244  1.0
  O  O8791  1  0.16415839  0.26569813  0.48154244  1.0
  O  O8792  1  0.16415839  0.43236480  0.48154244  1.0
  O  O8793  1  0.16415839  0.59903147  0.48154244  1.0
  O  O8794  1  0.16415839  0.76569813  0.48154244  1.0
  O  O8795  1  0.16415839  0.93236480  0.48154244  1.0
  O  O8796  1  0.24749172  0.09903147  0.48154244  1.0
  O  O8797  1  0.24749172  0.26569813  0.48154244  1.0
  O  O8798  1  0.24749172  0.43236480  0.48154244  1.0
  O  O8799  1  0.24749172  0.59903147  0.48154244  1.0
  O  O8800  1  0.24749172  0.76569813  0.48154244  1.0
  O  O8801  1  0.24749172  0.93236480  0.48154244  1.0
  O  O8802  1  0.33082505  0.09903147  0.48154244  1.0
  O  O8803  1  0.33082505  0.26569813  0.48154244  1.0
  O  O8804  1  0.33082505  0.43236480  0.48154244  1.0
  O  O8805  1  0.33082505  0.59903147  0.48154244  1.0
  O  O8806  1  0.33082505  0.76569813  0.48154244  1.0
  O  O8807  1  0.33082505  0.93236480  0.48154244  1.0
  O  O8808  1  0.41415839  0.09903147  0.48154244  1.0
  O  O8809  1  0.41415839  0.26569813  0.48154244  1.0
  O  O8810  1  0.41415839  0.43236480  0.48154244  1.0
  O  O8811  1  0.41415839  0.59903147  0.48154244  1.0
  O  O8812  1  0.41415839  0.76569813  0.48154244  1.0
  O  O8813  1  0.41415839  0.93236480  0.48154244  1.0
  O  O8814  1  0.49749172  0.09903147  0.48154244  1.0
  O  O8815  1  0.49749172  0.26569813  0.48154244  1.0
  O  O8816  1  0.49749172  0.43236480  0.48154244  1.0
  O  O8817  1  0.49749172  0.59903147  0.48154244  1.0
  O  O8818  1  0.49749172  0.76569813  0.48154244  1.0
  O  O8819  1  0.49749172  0.93236480  0.48154244  1.0
  O  O8820  1  0.58082505  0.09903147  0.48154244  1.0
  O  O8821  1  0.58082505  0.26569813  0.48154244  1.0
  O  O8822  1  0.58082505  0.43236480  0.48154244  1.0
  O  O8823  1  0.58082505  0.59903147  0.48154244  1.0
  O  O8824  1  0.58082505  0.76569813  0.48154244  1.0
  O  O8825  1  0.58082505  0.93236480  0.48154244  1.0
  O  O8826  1  0.66415839  0.09903147  0.48154244  1.0
  O  O8827  1  0.66415839  0.26569813  0.48154244  1.0
  O  O8828  1  0.66415839  0.43236480  0.48154244  1.0
  O  O8829  1  0.66415839  0.59903147  0.48154244  1.0
  O  O8830  1  0.66415839  0.76569813  0.48154244  1.0
  O  O8831  1  0.66415839  0.93236480  0.48154244  1.0
  O  O8832  1  0.74749172  0.09903147  0.48154244  1.0
  O  O8833  1  0.74749172  0.26569813  0.48154244  1.0
  O  O8834  1  0.74749172  0.43236480  0.48154244  1.0
  O  O8835  1  0.74749172  0.59903147  0.48154244  1.0
  O  O8836  1  0.74749172  0.76569813  0.48154244  1.0
  O  O8837  1  0.74749172  0.93236480  0.48154244  1.0
  O  O8838  1  0.83082505  0.09903147  0.48154244  1.0
  O  O8839  1  0.83082505  0.26569813  0.48154244  1.0
  O  O8840  1  0.83082505  0.43236480  0.48154244  1.0
  O  O8841  1  0.83082505  0.59903147  0.48154244  1.0
  O  O8842  1  0.83082505  0.76569813  0.48154244  1.0
  O  O8843  1  0.83082505  0.93236480  0.48154244  1.0
  O  O8844  1  0.91415839  0.09903147  0.48154244  1.0
  O  O8845  1  0.91415839  0.26569813  0.48154244  1.0
  O  O8846  1  0.91415839  0.43236480  0.48154244  1.0
  O  O8847  1  0.91415839  0.59903147  0.48154244  1.0
  O  O8848  1  0.91415839  0.76569813  0.48154244  1.0
  O  O8849  1  0.91415839  0.93236480  0.48154244  1.0
  O  O8850  1  0.99749172  0.09903147  0.48154244  1.0
  O  O8851  1  0.99749172  0.26569813  0.48154244  1.0
  O  O8852  1  0.99749172  0.43236480  0.48154244  1.0
  O  O8853  1  0.99749172  0.59903147  0.48154244  1.0
  O  O8854  1  0.99749172  0.76569813  0.48154244  1.0
  O  O8855  1  0.99749172  0.93236480  0.48154244  1.0
  O  O8856  1  0.02130124  0.11093623  0.41011387  1.0
  O  O8857  1  0.02130124  0.27760290  0.41011387  1.0
  O  O8858  1  0.02130124  0.44426956  0.41011387  1.0
  O  O8859  1  0.02130124  0.61093623  0.41011387  1.0
  O  O8860  1  0.02130124  0.77760290  0.41011387  1.0
  O  O8861  1  0.02130124  0.94426956  0.41011387  1.0
  O  O8862  1  0.10463458  0.11093623  0.41011387  1.0
  O  O8863  1  0.10463458  0.27760290  0.41011387  1.0
  O  O8864  1  0.10463458  0.44426956  0.41011387  1.0
  O  O8865  1  0.10463458  0.61093623  0.41011387  1.0
  O  O8866  1  0.10463458  0.77760290  0.41011387  1.0
  O  O8867  1  0.10463458  0.94426956  0.41011387  1.0
  O  O8868  1  0.18796791  0.11093623  0.41011387  1.0
  O  O8869  1  0.18796791  0.27760290  0.41011387  1.0
  O  O8870  1  0.18796791  0.44426956  0.41011387  1.0
  O  O8871  1  0.18796791  0.61093623  0.41011387  1.0
  O  O8872  1  0.18796791  0.77760290  0.41011387  1.0
  O  O8873  1  0.18796791  0.94426956  0.41011387  1.0
  O  O8874  1  0.27130124  0.11093623  0.41011387  1.0
  O  O8875  1  0.27130124  0.27760290  0.41011387  1.0
  O  O8876  1  0.27130124  0.44426956  0.41011387  1.0
  O  O8877  1  0.27130124  0.61093623  0.41011387  1.0
  O  O8878  1  0.27130124  0.77760290  0.41011387  1.0
  O  O8879  1  0.27130124  0.94426956  0.41011387  1.0
  O  O8880  1  0.35463458  0.11093623  0.41011387  1.0
  O  O8881  1  0.35463458  0.27760290  0.41011387  1.0
  O  O8882  1  0.35463458  0.44426956  0.41011387  1.0
  O  O8883  1  0.35463458  0.61093623  0.41011387  1.0
  O  O8884  1  0.35463458  0.77760290  0.41011387  1.0
  O  O8885  1  0.35463458  0.94426956  0.41011387  1.0
  O  O8886  1  0.43796791  0.11093623  0.41011387  1.0
  O  O8887  1  0.43796791  0.27760290  0.41011387  1.0
  O  O8888  1  0.43796791  0.44426956  0.41011387  1.0
  O  O8889  1  0.43796791  0.61093623  0.41011387  1.0
  O  O8890  1  0.43796791  0.77760290  0.41011387  1.0
  O  O8891  1  0.43796791  0.94426956  0.41011387  1.0
  O  O8892  1  0.52130124  0.11093623  0.41011387  1.0
  O  O8893  1  0.52130124  0.27760290  0.41011387  1.0
  O  O8894  1  0.52130124  0.44426956  0.41011387  1.0
  O  O8895  1  0.52130124  0.61093623  0.41011387  1.0
  O  O8896  1  0.52130124  0.77760290  0.41011387  1.0
  O  O8897  1  0.52130124  0.94426956  0.41011387  1.0
  O  O8898  1  0.60463458  0.11093623  0.41011387  1.0
  O  O8899  1  0.60463458  0.27760290  0.41011387  1.0
  O  O8900  1  0.60463458  0.44426956  0.41011387  1.0
  O  O8901  1  0.60463458  0.61093623  0.41011387  1.0
  O  O8902  1  0.60463458  0.77760290  0.41011387  1.0
  O  O8903  1  0.60463458  0.94426956  0.41011387  1.0
  O  O8904  1  0.68796791  0.11093623  0.41011387  1.0
  O  O8905  1  0.68796791  0.27760290  0.41011387  1.0
  O  O8906  1  0.68796791  0.44426956  0.41011387  1.0
  O  O8907  1  0.68796791  0.61093623  0.41011387  1.0
  O  O8908  1  0.68796791  0.77760290  0.41011387  1.0
  O  O8909  1  0.68796791  0.94426956  0.41011387  1.0
  O  O8910  1  0.77130124  0.11093623  0.41011387  1.0
  O  O8911  1  0.77130124  0.27760290  0.41011387  1.0
  O  O8912  1  0.77130124  0.44426956  0.41011387  1.0
  O  O8913  1  0.77130124  0.61093623  0.41011387  1.0
  O  O8914  1  0.77130124  0.77760290  0.41011387  1.0
  O  O8915  1  0.77130124  0.94426956  0.41011387  1.0
  O  O8916  1  0.85463458  0.11093623  0.41011387  1.0
  O  O8917  1  0.85463458  0.27760290  0.41011387  1.0
  O  O8918  1  0.85463458  0.44426956  0.41011387  1.0
  O  O8919  1  0.85463458  0.61093623  0.41011387  1.0
  O  O8920  1  0.85463458  0.77760290  0.41011387  1.0
  O  O8921  1  0.85463458  0.94426956  0.41011387  1.0
  O  O8922  1  0.93796791  0.11093623  0.41011387  1.0
  O  O8923  1  0.93796791  0.27760290  0.41011387  1.0
  O  O8924  1  0.93796791  0.44426956  0.41011387  1.0
  O  O8925  1  0.93796791  0.61093623  0.41011387  1.0
  O  O8926  1  0.93796791  0.77760290  0.41011387  1.0
  O  O8927  1  0.93796791  0.94426956  0.41011387  1.0
  O  O8928  1  0.03970567  0.12119907  0.48492220  1.0
  O  O8929  1  0.03970567  0.28786573  0.48492220  1.0
  O  O8930  1  0.03970567  0.45453240  0.48492220  1.0
  O  O8931  1  0.03970567  0.62119907  0.48492220  1.0
  O  O8932  1  0.03970567  0.78786573  0.48492220  1.0
  O  O8933  1  0.03970567  0.95453240  0.48492220  1.0
  O  O8934  1  0.12303900  0.12119907  0.48492220  1.0
  O  O8935  1  0.12303900  0.28786573  0.48492220  1.0
  O  O8936  1  0.12303900  0.45453240  0.48492220  1.0
  O  O8937  1  0.12303900  0.62119907  0.48492220  1.0
  O  O8938  1  0.12303900  0.78786573  0.48492220  1.0
  O  O8939  1  0.12303900  0.95453240  0.48492220  1.0
  O  O8940  1  0.20637233  0.12119907  0.48492220  1.0
  O  O8941  1  0.20637233  0.28786573  0.48492220  1.0
  O  O8942  1  0.20637233  0.45453240  0.48492220  1.0
  O  O8943  1  0.20637233  0.62119907  0.48492220  1.0
  O  O8944  1  0.20637233  0.78786573  0.48492220  1.0
  O  O8945  1  0.20637233  0.95453240  0.48492220  1.0
  O  O8946  1  0.28970567  0.12119907  0.48492220  1.0
  O  O8947  1  0.28970567  0.28786573  0.48492220  1.0
  O  O8948  1  0.28970567  0.45453240  0.48492220  1.0
  O  O8949  1  0.28970567  0.62119907  0.48492220  1.0
  O  O8950  1  0.28970567  0.78786573  0.48492220  1.0
  O  O8951  1  0.28970567  0.95453240  0.48492220  1.0
  O  O8952  1  0.37303900  0.12119907  0.48492220  1.0
  O  O8953  1  0.37303900  0.28786573  0.48492220  1.0
  O  O8954  1  0.37303900  0.45453240  0.48492220  1.0
  O  O8955  1  0.37303900  0.62119907  0.48492220  1.0
  O  O8956  1  0.37303900  0.78786573  0.48492220  1.0
  O  O8957  1  0.37303900  0.95453240  0.48492220  1.0
  O  O8958  1  0.45637233  0.12119907  0.48492220  1.0
  O  O8959  1  0.45637233  0.28786573  0.48492220  1.0
  O  O8960  1  0.45637233  0.45453240  0.48492220  1.0
  O  O8961  1  0.45637233  0.62119907  0.48492220  1.0
  O  O8962  1  0.45637233  0.78786573  0.48492220  1.0
  O  O8963  1  0.45637233  0.95453240  0.48492220  1.0
  O  O8964  1  0.53970567  0.12119907  0.48492220  1.0
  O  O8965  1  0.53970567  0.28786573  0.48492220  1.0
  O  O8966  1  0.53970567  0.45453240  0.48492220  1.0
  O  O8967  1  0.53970567  0.62119907  0.48492220  1.0
  O  O8968  1  0.53970567  0.78786573  0.48492220  1.0
  O  O8969  1  0.53970567  0.95453240  0.48492220  1.0
  O  O8970  1  0.62303900  0.12119907  0.48492220  1.0
  O  O8971  1  0.62303900  0.28786573  0.48492220  1.0
  O  O8972  1  0.62303900  0.45453240  0.48492220  1.0
  O  O8973  1  0.62303900  0.62119907  0.48492220  1.0
  O  O8974  1  0.62303900  0.78786573  0.48492220  1.0
  O  O8975  1  0.62303900  0.95453240  0.48492220  1.0
  O  O8976  1  0.70637233  0.12119907  0.48492220  1.0
  O  O8977  1  0.70637233  0.28786573  0.48492220  1.0
  O  O8978  1  0.70637233  0.45453240  0.48492220  1.0
  O  O8979  1  0.70637233  0.62119907  0.48492220  1.0
  O  O8980  1  0.70637233  0.78786573  0.48492220  1.0
  O  O8981  1  0.70637233  0.95453240  0.48492220  1.0
  O  O8982  1  0.78970567  0.12119907  0.48492220  1.0
  O  O8983  1  0.78970567  0.28786573  0.48492220  1.0
  O  O8984  1  0.78970567  0.45453240  0.48492220  1.0
  O  O8985  1  0.78970567  0.62119907  0.48492220  1.0
  O  O8986  1  0.78970567  0.78786573  0.48492220  1.0
  O  O8987  1  0.78970567  0.95453240  0.48492220  1.0
  O  O8988  1  0.87303900  0.12119907  0.48492220  1.0
  O  O8989  1  0.87303900  0.28786573  0.48492220  1.0
  O  O8990  1  0.87303900  0.45453240  0.48492220  1.0
  O  O8991  1  0.87303900  0.62119907  0.48492220  1.0
  O  O8992  1  0.87303900  0.78786573  0.48492220  1.0
  O  O8993  1  0.87303900  0.95453240  0.48492220  1.0
  O  O8994  1  0.95637233  0.12119907  0.48492220  1.0
  O  O8995  1  0.95637233  0.28786573  0.48492220  1.0
  O  O8996  1  0.95637233  0.45453240  0.48492220  1.0
  O  O8997  1  0.95637233  0.62119907  0.48492220  1.0
  O  O8998  1  0.95637233  0.78786573  0.48492220  1.0
  O  O8999  1  0.95637233  0.95453240  0.48492220  1.0
  O  O9000  1  0.06351519  0.13310383  0.41349363  1.0
  O  O9001  1  0.06351519  0.29977049  0.41349363  1.0
  O  O9002  1  0.06351519  0.46643716  0.41349363  1.0
  O  O9003  1  0.06351519  0.63310383  0.41349363  1.0
  O  O9004  1  0.06351519  0.79977049  0.41349363  1.0
  O  O9005  1  0.06351519  0.96643716  0.41349363  1.0
  O  O9006  1  0.14684852  0.13310383  0.41349363  1.0
  O  O9007  1  0.14684852  0.29977049  0.41349363  1.0
  O  O9008  1  0.14684852  0.46643716  0.41349363  1.0
  O  O9009  1  0.14684852  0.63310383  0.41349363  1.0
  O  O9010  1  0.14684852  0.79977049  0.41349363  1.0
  O  O9011  1  0.14684852  0.96643716  0.41349363  1.0
  O  O9012  1  0.23018186  0.13310383  0.41349363  1.0
  O  O9013  1  0.23018186  0.29977049  0.41349363  1.0
  O  O9014  1  0.23018186  0.46643716  0.41349363  1.0
  O  O9015  1  0.23018186  0.63310383  0.41349363  1.0
  O  O9016  1  0.23018186  0.79977049  0.41349363  1.0
  O  O9017  1  0.23018186  0.96643716  0.41349363  1.0
  O  O9018  1  0.31351519  0.13310383  0.41349363  1.0
  O  O9019  1  0.31351519  0.29977049  0.41349363  1.0
  O  O9020  1  0.31351519  0.46643716  0.41349363  1.0
  O  O9021  1  0.31351519  0.63310383  0.41349363  1.0
  O  O9022  1  0.31351519  0.79977049  0.41349363  1.0
  O  O9023  1  0.31351519  0.96643716  0.41349363  1.0
  O  O9024  1  0.39684852  0.13310383  0.41349363  1.0
  O  O9025  1  0.39684852  0.29977049  0.41349363  1.0
  O  O9026  1  0.39684852  0.46643716  0.41349363  1.0
  O  O9027  1  0.39684852  0.63310383  0.41349363  1.0
  O  O9028  1  0.39684852  0.79977049  0.41349363  1.0
  O  O9029  1  0.39684852  0.96643716  0.41349363  1.0
  O  O9030  1  0.48018186  0.13310383  0.41349363  1.0
  O  O9031  1  0.48018186  0.29977049  0.41349363  1.0
  O  O9032  1  0.48018186  0.46643716  0.41349363  1.0
  O  O9033  1  0.48018186  0.63310383  0.41349363  1.0
  O  O9034  1  0.48018186  0.79977049  0.41349363  1.0
  O  O9035  1  0.48018186  0.96643716  0.41349363  1.0
  O  O9036  1  0.56351519  0.13310383  0.41349363  1.0
  O  O9037  1  0.56351519  0.29977049  0.41349363  1.0
  O  O9038  1  0.56351519  0.46643716  0.41349363  1.0
  O  O9039  1  0.56351519  0.63310383  0.41349363  1.0
  O  O9040  1  0.56351519  0.79977049  0.41349363  1.0
  O  O9041  1  0.56351519  0.96643716  0.41349363  1.0
  O  O9042  1  0.64684852  0.13310383  0.41349363  1.0
  O  O9043  1  0.64684852  0.29977049  0.41349363  1.0
  O  O9044  1  0.64684852  0.46643716  0.41349363  1.0
  O  O9045  1  0.64684852  0.63310383  0.41349363  1.0
  O  O9046  1  0.64684852  0.79977049  0.41349363  1.0
  O  O9047  1  0.64684852  0.96643716  0.41349363  1.0
  O  O9048  1  0.73018186  0.13310383  0.41349363  1.0
  O  O9049  1  0.73018186  0.29977049  0.41349363  1.0
  O  O9050  1  0.73018186  0.46643716  0.41349363  1.0
  O  O9051  1  0.73018186  0.63310383  0.41349363  1.0
  O  O9052  1  0.73018186  0.79977049  0.41349363  1.0
  O  O9053  1  0.73018186  0.96643716  0.41349363  1.0
  O  O9054  1  0.81351519  0.13310383  0.41349363  1.0
  O  O9055  1  0.81351519  0.29977049  0.41349363  1.0
  O  O9056  1  0.81351519  0.46643716  0.41349363  1.0
  O  O9057  1  0.81351519  0.63310383  0.41349363  1.0
  O  O9058  1  0.81351519  0.79977049  0.41349363  1.0
  O  O9059  1  0.81351519  0.96643716  0.41349363  1.0
  O  O9060  1  0.89684852  0.13310383  0.41349363  1.0
  O  O9061  1  0.89684852  0.29977049  0.41349363  1.0
  O  O9062  1  0.89684852  0.46643716  0.41349363  1.0
  O  O9063  1  0.89684852  0.63310383  0.41349363  1.0
  O  O9064  1  0.89684852  0.79977049  0.41349363  1.0
  O  O9065  1  0.89684852  0.96643716  0.41349363  1.0
  O  O9066  1  0.98018186  0.13310383  0.41349363  1.0
  O  O9067  1  0.98018186  0.29977049  0.41349363  1.0
  O  O9068  1  0.98018186  0.46643716  0.41349363  1.0
  O  O9069  1  0.98018186  0.63310383  0.41349363  1.0
  O  O9070  1  0.98018186  0.79977049  0.41349363  1.0
  O  O9071  1  0.98018186  0.96643716  0.41349363  1.0
  O  O9072  1  0.07703500  0.06948399  0.36376410  1.0
  O  O9073  1  0.07703500  0.23615066  0.36376410  1.0
  O  O9074  1  0.07703500  0.40281733  0.36376410  1.0
  O  O9075  1  0.07703500  0.56948399  0.36376410  1.0
  O  O9076  1  0.07703500  0.73615066  0.36376410  1.0
  O  O9077  1  0.07703500  0.90281733  0.36376410  1.0
  O  O9078  1  0.16036833  0.06948399  0.36376410  1.0
  O  O9079  1  0.16036833  0.23615066  0.36376410  1.0
  O  O9080  1  0.16036833  0.40281733  0.36376410  1.0
  O  O9081  1  0.16036833  0.56948399  0.36376410  1.0
  O  O9082  1  0.16036833  0.73615066  0.36376410  1.0
  O  O9083  1  0.16036833  0.90281733  0.36376410  1.0
  O  O9084  1  0.24370166  0.06948399  0.36376410  1.0
  O  O9085  1  0.24370166  0.23615066  0.36376410  1.0
  O  O9086  1  0.24370166  0.40281733  0.36376410  1.0
  O  O9087  1  0.24370166  0.56948399  0.36376410  1.0
  O  O9088  1  0.24370166  0.73615066  0.36376410  1.0
  O  O9089  1  0.24370166  0.90281733  0.36376410  1.0
  O  O9090  1  0.32703500  0.06948399  0.36376410  1.0
  O  O9091  1  0.32703500  0.23615066  0.36376410  1.0
  O  O9092  1  0.32703500  0.40281733  0.36376410  1.0
  O  O9093  1  0.32703500  0.56948399  0.36376410  1.0
  O  O9094  1  0.32703500  0.73615066  0.36376410  1.0
  O  O9095  1  0.32703500  0.90281733  0.36376410  1.0
  O  O9096  1  0.41036833  0.06948399  0.36376410  1.0
  O  O9097  1  0.41036833  0.23615066  0.36376410  1.0
  O  O9098  1  0.41036833  0.40281733  0.36376410  1.0
  O  O9099  1  0.41036833  0.56948399  0.36376410  1.0
  O  O9100  1  0.41036833  0.73615066  0.36376410  1.0
  O  O9101  1  0.41036833  0.90281733  0.36376410  1.0
  O  O9102  1  0.49370166  0.06948399  0.36376410  1.0
  O  O9103  1  0.49370166  0.23615066  0.36376410  1.0
  O  O9104  1  0.49370166  0.40281733  0.36376410  1.0
  O  O9105  1  0.49370166  0.56948399  0.36376410  1.0
  O  O9106  1  0.49370166  0.73615066  0.36376410  1.0
  O  O9107  1  0.49370166  0.90281733  0.36376410  1.0
  O  O9108  1  0.57703500  0.06948399  0.36376410  1.0
  O  O9109  1  0.57703500  0.23615066  0.36376410  1.0
  O  O9110  1  0.57703500  0.40281733  0.36376410  1.0
  O  O9111  1  0.57703500  0.56948399  0.36376410  1.0
  O  O9112  1  0.57703500  0.73615066  0.36376410  1.0
  O  O9113  1  0.57703500  0.90281733  0.36376410  1.0
  O  O9114  1  0.66036833  0.06948399  0.36376410  1.0
  O  O9115  1  0.66036833  0.23615066  0.36376410  1.0
  O  O9116  1  0.66036833  0.40281733  0.36376410  1.0
  O  O9117  1  0.66036833  0.56948399  0.36376410  1.0
  O  O9118  1  0.66036833  0.73615066  0.36376410  1.0
  O  O9119  1  0.66036833  0.90281733  0.36376410  1.0
  O  O9120  1  0.74370166  0.06948399  0.36376410  1.0
  O  O9121  1  0.74370166  0.23615066  0.36376410  1.0
  O  O9122  1  0.74370166  0.40281733  0.36376410  1.0
  O  O9123  1  0.74370166  0.56948399  0.36376410  1.0
  O  O9124  1  0.74370166  0.73615066  0.36376410  1.0
  O  O9125  1  0.74370166  0.90281733  0.36376410  1.0
  O  O9126  1  0.82703500  0.06948399  0.36376410  1.0
  O  O9127  1  0.82703500  0.23615066  0.36376410  1.0
  O  O9128  1  0.82703500  0.40281733  0.36376410  1.0
  O  O9129  1  0.82703500  0.56948399  0.36376410  1.0
  O  O9130  1  0.82703500  0.73615066  0.36376410  1.0
  O  O9131  1  0.82703500  0.90281733  0.36376410  1.0
  O  O9132  1  0.91036833  0.06948399  0.36376410  1.0
  O  O9133  1  0.91036833  0.23615066  0.36376410  1.0
  O  O9134  1  0.91036833  0.40281733  0.36376410  1.0
  O  O9135  1  0.91036833  0.56948399  0.36376410  1.0
  O  O9136  1  0.91036833  0.73615066  0.36376410  1.0
  O  O9137  1  0.91036833  0.90281733  0.36376410  1.0
  O  O9138  1  0.99370166  0.06948399  0.36376410  1.0
  O  O9139  1  0.99370166  0.23615066  0.36376410  1.0
  O  O9140  1  0.99370166  0.40281733  0.36376410  1.0
  O  O9141  1  0.99370166  0.56948399  0.36376410  1.0
  O  O9142  1  0.99370166  0.73615066  0.36376410  1.0
  O  O9143  1  0.99370166  0.90281733  0.36376410  1.0
  O  O9144  1  0.05322547  0.05757923  0.43519267  1.0
  O  O9145  1  0.05322547  0.22424590  0.43519267  1.0
  O  O9146  1  0.05322547  0.39091257  0.43519267  1.0
  O  O9147  1  0.05322547  0.55757923  0.43519267  1.0
  O  O9148  1  0.05322547  0.72424590  0.43519267  1.0
  O  O9149  1  0.05322547  0.89091257  0.43519267  1.0
  O  O9150  1  0.13655880  0.05757923  0.43519267  1.0
  O  O9151  1  0.13655880  0.22424590  0.43519267  1.0
  O  O9152  1  0.13655880  0.39091257  0.43519267  1.0
  O  O9153  1  0.13655880  0.55757923  0.43519267  1.0
  O  O9154  1  0.13655880  0.72424590  0.43519267  1.0
  O  O9155  1  0.13655880  0.89091257  0.43519267  1.0
  O  O9156  1  0.21989214  0.05757923  0.43519267  1.0
  O  O9157  1  0.21989214  0.22424590  0.43519267  1.0
  O  O9158  1  0.21989214  0.39091257  0.43519267  1.0
  O  O9159  1  0.21989214  0.55757923  0.43519267  1.0
  O  O9160  1  0.21989214  0.72424590  0.43519267  1.0
  O  O9161  1  0.21989214  0.89091257  0.43519267  1.0
  O  O9162  1  0.30322547  0.05757923  0.43519267  1.0
  O  O9163  1  0.30322547  0.22424590  0.43519267  1.0
  O  O9164  1  0.30322547  0.39091257  0.43519267  1.0
  O  O9165  1  0.30322547  0.55757923  0.43519267  1.0
  O  O9166  1  0.30322547  0.72424590  0.43519267  1.0
  O  O9167  1  0.30322547  0.89091257  0.43519267  1.0
  O  O9168  1  0.38655880  0.05757923  0.43519267  1.0
  O  O9169  1  0.38655880  0.22424590  0.43519267  1.0
  O  O9170  1  0.38655880  0.39091257  0.43519267  1.0
  O  O9171  1  0.38655880  0.55757923  0.43519267  1.0
  O  O9172  1  0.38655880  0.72424590  0.43519267  1.0
  O  O9173  1  0.38655880  0.89091257  0.43519267  1.0
  O  O9174  1  0.46989214  0.05757923  0.43519267  1.0
  O  O9175  1  0.46989214  0.22424590  0.43519267  1.0
  O  O9176  1  0.46989214  0.39091257  0.43519267  1.0
  O  O9177  1  0.46989214  0.55757923  0.43519267  1.0
  O  O9178  1  0.46989214  0.72424590  0.43519267  1.0
  O  O9179  1  0.46989214  0.89091257  0.43519267  1.0
  O  O9180  1  0.55322547  0.05757923  0.43519267  1.0
  O  O9181  1  0.55322547  0.22424590  0.43519267  1.0
  O  O9182  1  0.55322547  0.39091257  0.43519267  1.0
  O  O9183  1  0.55322547  0.55757923  0.43519267  1.0
  O  O9184  1  0.55322547  0.72424590  0.43519267  1.0
  O  O9185  1  0.55322547  0.89091257  0.43519267  1.0
  O  O9186  1  0.63655880  0.05757923  0.43519267  1.0
  O  O9187  1  0.63655880  0.22424590  0.43519267  1.0
  O  O9188  1  0.63655880  0.39091257  0.43519267  1.0
  O  O9189  1  0.63655880  0.55757923  0.43519267  1.0
  O  O9190  1  0.63655880  0.72424590  0.43519267  1.0
  O  O9191  1  0.63655880  0.89091257  0.43519267  1.0
  O  O9192  1  0.71989214  0.05757923  0.43519267  1.0
  O  O9193  1  0.71989214  0.22424590  0.43519267  1.0
  O  O9194  1  0.71989214  0.39091257  0.43519267  1.0
  O  O9195  1  0.71989214  0.55757923  0.43519267  1.0
  O  O9196  1  0.71989214  0.72424590  0.43519267  1.0
  O  O9197  1  0.71989214  0.89091257  0.43519267  1.0
  O  O9198  1  0.80322547  0.05757923  0.43519267  1.0
  O  O9199  1  0.80322547  0.22424590  0.43519267  1.0
  O  O9200  1  0.80322547  0.39091257  0.43519267  1.0
  O  O9201  1  0.80322547  0.55757923  0.43519267  1.0
  O  O9202  1  0.80322547  0.72424590  0.43519267  1.0
  O  O9203  1  0.80322547  0.89091257  0.43519267  1.0
  O  O9204  1  0.88655880  0.05757923  0.43519267  1.0
  O  O9205  1  0.88655880  0.22424590  0.43519267  1.0
  O  O9206  1  0.88655880  0.39091257  0.43519267  1.0
  O  O9207  1  0.88655880  0.55757923  0.43519267  1.0
  O  O9208  1  0.88655880  0.72424590  0.43519267  1.0
  O  O9209  1  0.88655880  0.89091257  0.43519267  1.0
  O  O9210  1  0.96989214  0.05757923  0.43519267  1.0
  O  O9211  1  0.96989214  0.22424590  0.43519267  1.0
  O  O9212  1  0.96989214  0.39091257  0.43519267  1.0
  O  O9213  1  0.96989214  0.55757923  0.43519267  1.0
  O  O9214  1  0.96989214  0.72424590  0.43519267  1.0
  O  O9215  1  0.96989214  0.89091257  0.43519267  1.0
  O  O9216  1  0.08126317  0.05204595  0.47101432  1.0
  O  O9217  1  0.08126317  0.21871262  0.47101432  1.0
  O  O9218  1  0.08126317  0.38537928  0.47101432  1.0
  O  O9219  1  0.08126317  0.55204595  0.47101432  1.0
  O  O9220  1  0.08126317  0.71871262  0.47101432  1.0
  O  O9221  1  0.08126317  0.88537928  0.47101432  1.0
  O  O9222  1  0.16459650  0.05204595  0.47101432  1.0
  O  O9223  1  0.16459650  0.21871262  0.47101432  1.0
  O  O9224  1  0.16459650  0.38537928  0.47101432  1.0
  O  O9225  1  0.16459650  0.55204595  0.47101432  1.0
  O  O9226  1  0.16459650  0.71871262  0.47101432  1.0
  O  O9227  1  0.16459650  0.88537928  0.47101432  1.0
  O  O9228  1  0.24792984  0.05204595  0.47101432  1.0
  O  O9229  1  0.24792984  0.21871262  0.47101432  1.0
  O  O9230  1  0.24792984  0.38537928  0.47101432  1.0
  O  O9231  1  0.24792984  0.55204595  0.47101432  1.0
  O  O9232  1  0.24792984  0.71871262  0.47101432  1.0
  O  O9233  1  0.24792984  0.88537928  0.47101432  1.0
  O  O9234  1  0.33126317  0.05204595  0.47101432  1.0
  O  O9235  1  0.33126317  0.21871262  0.47101432  1.0
  O  O9236  1  0.33126317  0.38537928  0.47101432  1.0
  O  O9237  1  0.33126317  0.55204595  0.47101432  1.0
  O  O9238  1  0.33126317  0.71871262  0.47101432  1.0
  O  O9239  1  0.33126317  0.88537928  0.47101432  1.0
  O  O9240  1  0.41459650  0.05204595  0.47101432  1.0
  O  O9241  1  0.41459650  0.21871262  0.47101432  1.0
  O  O9242  1  0.41459650  0.38537928  0.47101432  1.0
  O  O9243  1  0.41459650  0.55204595  0.47101432  1.0
  O  O9244  1  0.41459650  0.71871262  0.47101432  1.0
  O  O9245  1  0.41459650  0.88537928  0.47101432  1.0
  O  O9246  1  0.49792984  0.05204595  0.47101432  1.0
  O  O9247  1  0.49792984  0.21871262  0.47101432  1.0
  O  O9248  1  0.49792984  0.38537928  0.47101432  1.0
  O  O9249  1  0.49792984  0.55204595  0.47101432  1.0
  O  O9250  1  0.49792984  0.71871262  0.47101432  1.0
  O  O9251  1  0.49792984  0.88537928  0.47101432  1.0
  O  O9252  1  0.58126317  0.05204595  0.47101432  1.0
  O  O9253  1  0.58126317  0.21871262  0.47101432  1.0
  O  O9254  1  0.58126317  0.38537928  0.47101432  1.0
  O  O9255  1  0.58126317  0.55204595  0.47101432  1.0
  O  O9256  1  0.58126317  0.71871262  0.47101432  1.0
  O  O9257  1  0.58126317  0.88537928  0.47101432  1.0
  O  O9258  1  0.66459650  0.05204595  0.47101432  1.0
  O  O9259  1  0.66459650  0.21871262  0.47101432  1.0
  O  O9260  1  0.66459650  0.38537928  0.47101432  1.0
  O  O9261  1  0.66459650  0.55204595  0.47101432  1.0
  O  O9262  1  0.66459650  0.71871262  0.47101432  1.0
  O  O9263  1  0.66459650  0.88537928  0.47101432  1.0
  O  O9264  1  0.74792984  0.05204595  0.47101432  1.0
  O  O9265  1  0.74792984  0.21871262  0.47101432  1.0
  O  O9266  1  0.74792984  0.38537928  0.47101432  1.0
  O  O9267  1  0.74792984  0.55204595  0.47101432  1.0
  O  O9268  1  0.74792984  0.71871262  0.47101432  1.0
  O  O9269  1  0.74792984  0.88537928  0.47101432  1.0
  O  O9270  1  0.83126317  0.05204595  0.47101432  1.0
  O  O9271  1  0.83126317  0.21871262  0.47101432  1.0
  O  O9272  1  0.83126317  0.38537928  0.47101432  1.0
  O  O9273  1  0.83126317  0.55204595  0.47101432  1.0
  O  O9274  1  0.83126317  0.71871262  0.47101432  1.0
  O  O9275  1  0.83126317  0.88537928  0.47101432  1.0
  O  O9276  1  0.91459650  0.05204595  0.47101432  1.0
  O  O9277  1  0.91459650  0.21871262  0.47101432  1.0
  O  O9278  1  0.91459650  0.38537928  0.47101432  1.0
  O  O9279  1  0.91459650  0.55204595  0.47101432  1.0
  O  O9280  1  0.91459650  0.71871262  0.47101432  1.0
  O  O9281  1  0.91459650  0.88537928  0.47101432  1.0
  O  O9282  1  0.99792984  0.05204595  0.47101432  1.0
  O  O9283  1  0.99792984  0.21871262  0.47101432  1.0
  O  O9284  1  0.99792984  0.38537928  0.47101432  1.0
  O  O9285  1  0.99792984  0.55204595  0.47101432  1.0
  O  O9286  1  0.99792984  0.71871262  0.47101432  1.0
  O  O9287  1  0.99792984  0.88537928  0.47101432  1.0
  O  O9288  1  0.02173936  0.06395071  0.39958575  1.0
  O  O9289  1  0.02173936  0.23061738  0.39958575  1.0
  O  O9290  1  0.02173936  0.39728405  0.39958575  1.0
  O  O9291  1  0.02173936  0.56395071  0.39958575  1.0
  O  O9292  1  0.02173936  0.73061738  0.39958575  1.0
  O  O9293  1  0.02173936  0.89728405  0.39958575  1.0
  O  O9294  1  0.10507269  0.06395071  0.39958575  1.0
  O  O9295  1  0.10507269  0.23061738  0.39958575  1.0
  O  O9296  1  0.10507269  0.39728405  0.39958575  1.0
  O  O9297  1  0.10507269  0.56395071  0.39958575  1.0
  O  O9298  1  0.10507269  0.73061738  0.39958575  1.0
  O  O9299  1  0.10507269  0.89728405  0.39958575  1.0
  O  O9300  1  0.18840603  0.06395071  0.39958575  1.0
  O  O9301  1  0.18840603  0.23061738  0.39958575  1.0
  O  O9302  1  0.18840603  0.39728405  0.39958575  1.0
  O  O9303  1  0.18840603  0.56395071  0.39958575  1.0
  O  O9304  1  0.18840603  0.73061738  0.39958575  1.0
  O  O9305  1  0.18840603  0.89728405  0.39958575  1.0
  O  O9306  1  0.27173936  0.06395071  0.39958575  1.0
  O  O9307  1  0.27173936  0.23061738  0.39958575  1.0
  O  O9308  1  0.27173936  0.39728405  0.39958575  1.0
  O  O9309  1  0.27173936  0.56395071  0.39958575  1.0
  O  O9310  1  0.27173936  0.73061738  0.39958575  1.0
  O  O9311  1  0.27173936  0.89728405  0.39958575  1.0
  O  O9312  1  0.35507269  0.06395071  0.39958575  1.0
  O  O9313  1  0.35507269  0.23061738  0.39958575  1.0
  O  O9314  1  0.35507269  0.39728405  0.39958575  1.0
  O  O9315  1  0.35507269  0.56395071  0.39958575  1.0
  O  O9316  1  0.35507269  0.73061738  0.39958575  1.0
  O  O9317  1  0.35507269  0.89728405  0.39958575  1.0
  O  O9318  1  0.43840603  0.06395071  0.39958575  1.0
  O  O9319  1  0.43840603  0.23061738  0.39958575  1.0
  O  O9320  1  0.43840603  0.39728405  0.39958575  1.0
  O  O9321  1  0.43840603  0.56395071  0.39958575  1.0
  O  O9322  1  0.43840603  0.73061738  0.39958575  1.0
  O  O9323  1  0.43840603  0.89728405  0.39958575  1.0
  O  O9324  1  0.52173936  0.06395071  0.39958575  1.0
  O  O9325  1  0.52173936  0.23061738  0.39958575  1.0
  O  O9326  1  0.52173936  0.39728405  0.39958575  1.0
  O  O9327  1  0.52173936  0.56395071  0.39958575  1.0
  O  O9328  1  0.52173936  0.73061738  0.39958575  1.0
  O  O9329  1  0.52173936  0.89728405  0.39958575  1.0
  O  O9330  1  0.60507269  0.06395071  0.39958575  1.0
  O  O9331  1  0.60507269  0.23061738  0.39958575  1.0
  O  O9332  1  0.60507269  0.39728405  0.39958575  1.0
  O  O9333  1  0.60507269  0.56395071  0.39958575  1.0
  O  O9334  1  0.60507269  0.73061738  0.39958575  1.0
  O  O9335  1  0.60507269  0.89728405  0.39958575  1.0
  O  O9336  1  0.68840603  0.06395071  0.39958575  1.0
  O  O9337  1  0.68840603  0.23061738  0.39958575  1.0
  O  O9338  1  0.68840603  0.39728405  0.39958575  1.0
  O  O9339  1  0.68840603  0.56395071  0.39958575  1.0
  O  O9340  1  0.68840603  0.73061738  0.39958575  1.0
  O  O9341  1  0.68840603  0.89728405  0.39958575  1.0
  O  O9342  1  0.77173936  0.06395071  0.39958575  1.0
  O  O9343  1  0.77173936  0.23061738  0.39958575  1.0
  O  O9344  1  0.77173936  0.39728405  0.39958575  1.0
  O  O9345  1  0.77173936  0.56395071  0.39958575  1.0
  O  O9346  1  0.77173936  0.73061738  0.39958575  1.0
  O  O9347  1  0.77173936  0.89728405  0.39958575  1.0
  O  O9348  1  0.85507269  0.06395071  0.39958575  1.0
  O  O9349  1  0.85507269  0.23061738  0.39958575  1.0
  O  O9350  1  0.85507269  0.39728405  0.39958575  1.0
  O  O9351  1  0.85507269  0.56395071  0.39958575  1.0
  O  O9352  1  0.85507269  0.73061738  0.39958575  1.0
  O  O9353  1  0.85507269  0.89728405  0.39958575  1.0
  O  O9354  1  0.93840603  0.06395071  0.39958575  1.0
  O  O9355  1  0.93840603  0.23061738  0.39958575  1.0
  O  O9356  1  0.93840603  0.39728405  0.39958575  1.0
  O  O9357  1  0.93840603  0.56395071  0.39958575  1.0
  O  O9358  1  0.93840603  0.73061738  0.39958575  1.0
  O  O9359  1  0.93840603  0.89728405  0.39958575  1.0
  O  O9360  1  0.07368517  0.11542511  0.37214146  1.0
  O  O9361  1  0.07368517  0.28209177  0.37214146  1.0
  O  O9362  1  0.07368517  0.44875844  0.37214146  1.0
  O  O9363  1  0.07368517  0.61542511  0.37214146  1.0
  O  O9364  1  0.07368517  0.78209177  0.37214146  1.0
  O  O9365  1  0.07368517  0.94875844  0.37214146  1.0
  O  O9366  1  0.15701850  0.11542511  0.37214146  1.0
  O  O9367  1  0.15701850  0.28209177  0.37214146  1.0
  O  O9368  1  0.15701850  0.44875844  0.37214146  1.0
  O  O9369  1  0.15701850  0.61542511  0.37214146  1.0
  O  O9370  1  0.15701850  0.78209177  0.37214146  1.0
  O  O9371  1  0.15701850  0.94875844  0.37214146  1.0
  O  O9372  1  0.24035183  0.11542511  0.37214146  1.0
  O  O9373  1  0.24035183  0.28209177  0.37214146  1.0
  O  O9374  1  0.24035183  0.44875844  0.37214146  1.0
  O  O9375  1  0.24035183  0.61542511  0.37214146  1.0
  O  O9376  1  0.24035183  0.78209177  0.37214146  1.0
  O  O9377  1  0.24035183  0.94875844  0.37214146  1.0
  O  O9378  1  0.32368517  0.11542511  0.37214146  1.0
  O  O9379  1  0.32368517  0.28209177  0.37214146  1.0
  O  O9380  1  0.32368517  0.44875844  0.37214146  1.0
  O  O9381  1  0.32368517  0.61542511  0.37214146  1.0
  O  O9382  1  0.32368517  0.78209177  0.37214146  1.0
  O  O9383  1  0.32368517  0.94875844  0.37214146  1.0
  O  O9384  1  0.40701850  0.11542511  0.37214146  1.0
  O  O9385  1  0.40701850  0.28209177  0.37214146  1.0
  O  O9386  1  0.40701850  0.44875844  0.37214146  1.0
  O  O9387  1  0.40701850  0.61542511  0.37214146  1.0
  O  O9388  1  0.40701850  0.78209177  0.37214146  1.0
  O  O9389  1  0.40701850  0.94875844  0.37214146  1.0
  O  O9390  1  0.49035183  0.11542511  0.37214146  1.0
  O  O9391  1  0.49035183  0.28209177  0.37214146  1.0
  O  O9392  1  0.49035183  0.44875844  0.37214146  1.0
  O  O9393  1  0.49035183  0.61542511  0.37214146  1.0
  O  O9394  1  0.49035183  0.78209177  0.37214146  1.0
  O  O9395  1  0.49035183  0.94875844  0.37214146  1.0
  O  O9396  1  0.57368517  0.11542511  0.37214146  1.0
  O  O9397  1  0.57368517  0.28209177  0.37214146  1.0
  O  O9398  1  0.57368517  0.44875844  0.37214146  1.0
  O  O9399  1  0.57368517  0.61542511  0.37214146  1.0
  O  O9400  1  0.57368517  0.78209177  0.37214146  1.0
  O  O9401  1  0.57368517  0.94875844  0.37214146  1.0
  O  O9402  1  0.65701850  0.11542511  0.37214146  1.0
  O  O9403  1  0.65701850  0.28209177  0.37214146  1.0
  O  O9404  1  0.65701850  0.44875844  0.37214146  1.0
  O  O9405  1  0.65701850  0.61542511  0.37214146  1.0
  O  O9406  1  0.65701850  0.78209177  0.37214146  1.0
  O  O9407  1  0.65701850  0.94875844  0.37214146  1.0
  O  O9408  1  0.74035183  0.11542511  0.37214146  1.0
  O  O9409  1  0.74035183  0.28209177  0.37214146  1.0
  O  O9410  1  0.74035183  0.44875844  0.37214146  1.0
  O  O9411  1  0.74035183  0.61542511  0.37214146  1.0
  O  O9412  1  0.74035183  0.78209177  0.37214146  1.0
  O  O9413  1  0.74035183  0.94875844  0.37214146  1.0
  O  O9414  1  0.82368517  0.11542511  0.37214146  1.0
  O  O9415  1  0.82368517  0.28209177  0.37214146  1.0
  O  O9416  1  0.82368517  0.44875844  0.37214146  1.0
  O  O9417  1  0.82368517  0.61542511  0.37214146  1.0
  O  O9418  1  0.82368517  0.78209177  0.37214146  1.0
  O  O9419  1  0.82368517  0.94875844  0.37214146  1.0
  O  O9420  1  0.90701850  0.11542511  0.37214146  1.0
  O  O9421  1  0.90701850  0.28209177  0.37214146  1.0
  O  O9422  1  0.90701850  0.44875844  0.37214146  1.0
  O  O9423  1  0.90701850  0.61542511  0.37214146  1.0
  O  O9424  1  0.90701850  0.78209177  0.37214146  1.0
  O  O9425  1  0.90701850  0.94875844  0.37214146  1.0
  O  O9426  1  0.99035183  0.11542511  0.37214146  1.0
  O  O9427  1  0.99035183  0.28209177  0.37214146  1.0
  O  O9428  1  0.99035183  0.44875844  0.37214146  1.0
  O  O9429  1  0.99035183  0.61542511  0.37214146  1.0
  O  O9430  1  0.99035183  0.78209177  0.37214146  1.0
  O  O9431  1  0.99035183  0.94875844  0.37214146  1.0
  O  O9432  1  0.04987564  0.10352034  0.44357003  1.0
  O  O9433  1  0.04987564  0.27018701  0.44357003  1.0
  O  O9434  1  0.04987564  0.43685368  0.44357003  1.0
  O  O9435  1  0.04987564  0.60352034  0.44357003  1.0
  O  O9436  1  0.04987564  0.77018701  0.44357003  1.0
  O  O9437  1  0.04987564  0.93685368  0.44357003  1.0
  O  O9438  1  0.13320898  0.10352034  0.44357003  1.0
  O  O9439  1  0.13320898  0.27018701  0.44357003  1.0
  O  O9440  1  0.13320898  0.43685368  0.44357003  1.0
  O  O9441  1  0.13320898  0.60352034  0.44357003  1.0
  O  O9442  1  0.13320898  0.77018701  0.44357003  1.0
  O  O9443  1  0.13320898  0.93685368  0.44357003  1.0
  O  O9444  1  0.21654231  0.10352034  0.44357003  1.0
  O  O9445  1  0.21654231  0.27018701  0.44357003  1.0
  O  O9446  1  0.21654231  0.43685368  0.44357003  1.0
  O  O9447  1  0.21654231  0.60352034  0.44357003  1.0
  O  O9448  1  0.21654231  0.77018701  0.44357003  1.0
  O  O9449  1  0.21654231  0.93685368  0.44357003  1.0
  O  O9450  1  0.29987564  0.10352034  0.44357003  1.0
  O  O9451  1  0.29987564  0.27018701  0.44357003  1.0
  O  O9452  1  0.29987564  0.43685368  0.44357003  1.0
  O  O9453  1  0.29987564  0.60352034  0.44357003  1.0
  O  O9454  1  0.29987564  0.77018701  0.44357003  1.0
  O  O9455  1  0.29987564  0.93685368  0.44357003  1.0
  O  O9456  1  0.38320898  0.10352034  0.44357003  1.0
  O  O9457  1  0.38320898  0.27018701  0.44357003  1.0
  O  O9458  1  0.38320898  0.43685368  0.44357003  1.0
  O  O9459  1  0.38320898  0.60352034  0.44357003  1.0
  O  O9460  1  0.38320898  0.77018701  0.44357003  1.0
  O  O9461  1  0.38320898  0.93685368  0.44357003  1.0
  O  O9462  1  0.46654231  0.10352034  0.44357003  1.0
  O  O9463  1  0.46654231  0.27018701  0.44357003  1.0
  O  O9464  1  0.46654231  0.43685368  0.44357003  1.0
  O  O9465  1  0.46654231  0.60352034  0.44357003  1.0
  O  O9466  1  0.46654231  0.77018701  0.44357003  1.0
  O  O9467  1  0.46654231  0.93685368  0.44357003  1.0
  O  O9468  1  0.54987564  0.10352034  0.44357003  1.0
  O  O9469  1  0.54987564  0.27018701  0.44357003  1.0
  O  O9470  1  0.54987564  0.43685368  0.44357003  1.0
  O  O9471  1  0.54987564  0.60352034  0.44357003  1.0
  O  O9472  1  0.54987564  0.77018701  0.44357003  1.0
  O  O9473  1  0.54987564  0.93685368  0.44357003  1.0
  O  O9474  1  0.63320898  0.10352034  0.44357003  1.0
  O  O9475  1  0.63320898  0.27018701  0.44357003  1.0
  O  O9476  1  0.63320898  0.43685368  0.44357003  1.0
  O  O9477  1  0.63320898  0.60352034  0.44357003  1.0
  O  O9478  1  0.63320898  0.77018701  0.44357003  1.0
  O  O9479  1  0.63320898  0.93685368  0.44357003  1.0
  O  O9480  1  0.71654231  0.10352034  0.44357003  1.0
  O  O9481  1  0.71654231  0.27018701  0.44357003  1.0
  O  O9482  1  0.71654231  0.43685368  0.44357003  1.0
  O  O9483  1  0.71654231  0.60352034  0.44357003  1.0
  O  O9484  1  0.71654231  0.77018701  0.44357003  1.0
  O  O9485  1  0.71654231  0.93685368  0.44357003  1.0
  O  O9486  1  0.79987564  0.10352034  0.44357003  1.0
  O  O9487  1  0.79987564  0.27018701  0.44357003  1.0
  O  O9488  1  0.79987564  0.43685368  0.44357003  1.0
  O  O9489  1  0.79987564  0.60352034  0.44357003  1.0
  O  O9490  1  0.79987564  0.77018701  0.44357003  1.0
  O  O9491  1  0.79987564  0.93685368  0.44357003  1.0
  O  O9492  1  0.88320898  0.10352034  0.44357003  1.0
  O  O9493  1  0.88320898  0.27018701  0.44357003  1.0
  O  O9494  1  0.88320898  0.43685368  0.44357003  1.0
  O  O9495  1  0.88320898  0.60352034  0.44357003  1.0
  O  O9496  1  0.88320898  0.77018701  0.44357003  1.0
  O  O9497  1  0.88320898  0.93685368  0.44357003  1.0
  O  O9498  1  0.96654231  0.10352034  0.44357003  1.0
  O  O9499  1  0.96654231  0.27018701  0.44357003  1.0
  O  O9500  1  0.96654231  0.43685368  0.44357003  1.0
  O  O9501  1  0.96654231  0.60352034  0.44357003  1.0
  O  O9502  1  0.96654231  0.77018701  0.44357003  1.0
  O  O9503  1  0.96654231  0.93685368  0.44357003  1.0
  O  O9504  1  0.04020475  0.07429609  0.47440081  1.0
  O  O9505  1  0.04020475  0.24096276  0.47440081  1.0
  O  O9506  1  0.04020475  0.40762943  0.47440081  1.0
  O  O9507  1  0.04020475  0.57429609  0.47440081  1.0
  O  O9508  1  0.04020475  0.74096276  0.47440081  1.0
  O  O9509  1  0.04020475  0.90762943  0.47440081  1.0
  O  O9510  1  0.12353808  0.07429609  0.47440081  1.0
  O  O9511  1  0.12353808  0.24096276  0.47440081  1.0
  O  O9512  1  0.12353808  0.40762943  0.47440081  1.0
  O  O9513  1  0.12353808  0.57429609  0.47440081  1.0
  O  O9514  1  0.12353808  0.74096276  0.47440081  1.0
  O  O9515  1  0.12353808  0.90762943  0.47440081  1.0
  O  O9516  1  0.20687141  0.07429609  0.47440081  1.0
  O  O9517  1  0.20687141  0.24096276  0.47440081  1.0
  O  O9518  1  0.20687141  0.40762943  0.47440081  1.0
  O  O9519  1  0.20687141  0.57429609  0.47440081  1.0
  O  O9520  1  0.20687141  0.74096276  0.47440081  1.0
  O  O9521  1  0.20687141  0.90762943  0.47440081  1.0
  O  O9522  1  0.29020475  0.07429609  0.47440081  1.0
  O  O9523  1  0.29020475  0.24096276  0.47440081  1.0
  O  O9524  1  0.29020475  0.40762943  0.47440081  1.0
  O  O9525  1  0.29020475  0.57429609  0.47440081  1.0
  O  O9526  1  0.29020475  0.74096276  0.47440081  1.0
  O  O9527  1  0.29020475  0.90762943  0.47440081  1.0
  O  O9528  1  0.37353808  0.07429609  0.47440081  1.0
  O  O9529  1  0.37353808  0.24096276  0.47440081  1.0
  O  O9530  1  0.37353808  0.40762943  0.47440081  1.0
  O  O9531  1  0.37353808  0.57429609  0.47440081  1.0
  O  O9532  1  0.37353808  0.74096276  0.47440081  1.0
  O  O9533  1  0.37353808  0.90762943  0.47440081  1.0
  O  O9534  1  0.45687141  0.07429609  0.47440081  1.0
  O  O9535  1  0.45687141  0.24096276  0.47440081  1.0
  O  O9536  1  0.45687141  0.40762943  0.47440081  1.0
  O  O9537  1  0.45687141  0.57429609  0.47440081  1.0
  O  O9538  1  0.45687141  0.74096276  0.47440081  1.0
  O  O9539  1  0.45687141  0.90762943  0.47440081  1.0
  O  O9540  1  0.54020475  0.07429609  0.47440081  1.0
  O  O9541  1  0.54020475  0.24096276  0.47440081  1.0
  O  O9542  1  0.54020475  0.40762943  0.47440081  1.0
  O  O9543  1  0.54020475  0.57429609  0.47440081  1.0
  O  O9544  1  0.54020475  0.74096276  0.47440081  1.0
  O  O9545  1  0.54020475  0.90762943  0.47440081  1.0
  O  O9546  1  0.62353808  0.07429609  0.47440081  1.0
  O  O9547  1  0.62353808  0.24096276  0.47440081  1.0
  O  O9548  1  0.62353808  0.40762943  0.47440081  1.0
  O  O9549  1  0.62353808  0.57429609  0.47440081  1.0
  O  O9550  1  0.62353808  0.74096276  0.47440081  1.0
  O  O9551  1  0.62353808  0.90762943  0.47440081  1.0
  O  O9552  1  0.70687141  0.07429609  0.47440081  1.0
  O  O9553  1  0.70687141  0.24096276  0.47440081  1.0
  O  O9554  1  0.70687141  0.40762943  0.47440081  1.0
  O  O9555  1  0.70687141  0.57429609  0.47440081  1.0
  O  O9556  1  0.70687141  0.74096276  0.47440081  1.0
  O  O9557  1  0.70687141  0.90762943  0.47440081  1.0
  O  O9558  1  0.79020475  0.07429609  0.47440081  1.0
  O  O9559  1  0.79020475  0.24096276  0.47440081  1.0
  O  O9560  1  0.79020475  0.40762943  0.47440081  1.0
  O  O9561  1  0.79020475  0.57429609  0.47440081  1.0
  O  O9562  1  0.79020475  0.74096276  0.47440081  1.0
  O  O9563  1  0.79020475  0.90762943  0.47440081  1.0
  O  O9564  1  0.87353808  0.07429609  0.47440081  1.0
  O  O9565  1  0.87353808  0.24096276  0.47440081  1.0
  O  O9566  1  0.87353808  0.40762943  0.47440081  1.0
  O  O9567  1  0.87353808  0.57429609  0.47440081  1.0
  O  O9568  1  0.87353808  0.74096276  0.47440081  1.0
  O  O9569  1  0.87353808  0.90762943  0.47440081  1.0
  O  O9570  1  0.95687141  0.07429609  0.47440081  1.0
  O  O9571  1  0.95687141  0.24096276  0.47440081  1.0
  O  O9572  1  0.95687141  0.40762943  0.47440081  1.0
  O  O9573  1  0.95687141  0.57429609  0.47440081  1.0
  O  O9574  1  0.95687141  0.74096276  0.47440081  1.0
  O  O9575  1  0.95687141  0.90762943  0.47440081  1.0
  O  O9576  1  0.06401427  0.08620086  0.40297224  1.0
  O  O9577  1  0.06401427  0.25286752  0.40297224  1.0
  O  O9578  1  0.06401427  0.41953419  0.40297224  1.0
  O  O9579  1  0.06401427  0.58620086  0.40297224  1.0
  O  O9580  1  0.06401427  0.75286752  0.40297224  1.0
  O  O9581  1  0.06401427  0.91953419  0.40297224  1.0
  O  O9582  1  0.14734760  0.08620086  0.40297224  1.0
  O  O9583  1  0.14734760  0.25286752  0.40297224  1.0
  O  O9584  1  0.14734760  0.41953419  0.40297224  1.0
  O  O9585  1  0.14734760  0.58620086  0.40297224  1.0
  O  O9586  1  0.14734760  0.75286752  0.40297224  1.0
  O  O9587  1  0.14734760  0.91953419  0.40297224  1.0
  O  O9588  1  0.23068094  0.08620086  0.40297224  1.0
  O  O9589  1  0.23068094  0.25286752  0.40297224  1.0
  O  O9590  1  0.23068094  0.41953419  0.40297224  1.0
  O  O9591  1  0.23068094  0.58620086  0.40297224  1.0
  O  O9592  1  0.23068094  0.75286752  0.40297224  1.0
  O  O9593  1  0.23068094  0.91953419  0.40297224  1.0
  O  O9594  1  0.31401427  0.08620086  0.40297224  1.0
  O  O9595  1  0.31401427  0.25286752  0.40297224  1.0
  O  O9596  1  0.31401427  0.41953419  0.40297224  1.0
  O  O9597  1  0.31401427  0.58620086  0.40297224  1.0
  O  O9598  1  0.31401427  0.75286752  0.40297224  1.0
  O  O9599  1  0.31401427  0.91953419  0.40297224  1.0
  O  O9600  1  0.39734760  0.08620086  0.40297224  1.0
  O  O9601  1  0.39734760  0.25286752  0.40297224  1.0
  O  O9602  1  0.39734760  0.41953419  0.40297224  1.0
  O  O9603  1  0.39734760  0.58620086  0.40297224  1.0
  O  O9604  1  0.39734760  0.75286752  0.40297224  1.0
  O  O9605  1  0.39734760  0.91953419  0.40297224  1.0
  O  O9606  1  0.48068094  0.08620086  0.40297224  1.0
  O  O9607  1  0.48068094  0.25286752  0.40297224  1.0
  O  O9608  1  0.48068094  0.41953419  0.40297224  1.0
  O  O9609  1  0.48068094  0.58620086  0.40297224  1.0
  O  O9610  1  0.48068094  0.75286752  0.40297224  1.0
  O  O9611  1  0.48068094  0.91953419  0.40297224  1.0
  O  O9612  1  0.56401427  0.08620086  0.40297224  1.0
  O  O9613  1  0.56401427  0.25286752  0.40297224  1.0
  O  O9614  1  0.56401427  0.41953419  0.40297224  1.0
  O  O9615  1  0.56401427  0.58620086  0.40297224  1.0
  O  O9616  1  0.56401427  0.75286752  0.40297224  1.0
  O  O9617  1  0.56401427  0.91953419  0.40297224  1.0
  O  O9618  1  0.64734760  0.08620086  0.40297224  1.0
  O  O9619  1  0.64734760  0.25286752  0.40297224  1.0
  O  O9620  1  0.64734760  0.41953419  0.40297224  1.0
  O  O9621  1  0.64734760  0.58620086  0.40297224  1.0
  O  O9622  1  0.64734760  0.75286752  0.40297224  1.0
  O  O9623  1  0.64734760  0.91953419  0.40297224  1.0
  O  O9624  1  0.73068094  0.08620086  0.40297224  1.0
  O  O9625  1  0.73068094  0.25286752  0.40297224  1.0
  O  O9626  1  0.73068094  0.41953419  0.40297224  1.0
  O  O9627  1  0.73068094  0.58620086  0.40297224  1.0
  O  O9628  1  0.73068094  0.75286752  0.40297224  1.0
  O  O9629  1  0.73068094  0.91953419  0.40297224  1.0
  O  O9630  1  0.81401427  0.08620086  0.40297224  1.0
  O  O9631  1  0.81401427  0.25286752  0.40297224  1.0
  O  O9632  1  0.81401427  0.41953419  0.40297224  1.0
  O  O9633  1  0.81401427  0.58620086  0.40297224  1.0
  O  O9634  1  0.81401427  0.75286752  0.40297224  1.0
  O  O9635  1  0.81401427  0.91953419  0.40297224  1.0
  O  O9636  1  0.89734760  0.08620086  0.40297224  1.0
  O  O9637  1  0.89734760  0.25286752  0.40297224  1.0
  O  O9638  1  0.89734760  0.41953419  0.40297224  1.0
  O  O9639  1  0.89734760  0.58620086  0.40297224  1.0
  O  O9640  1  0.89734760  0.75286752  0.40297224  1.0
  O  O9641  1  0.89734760  0.91953419  0.40297224  1.0
  O  O9642  1  0.98068094  0.08620086  0.40297224  1.0
  O  O9643  1  0.98068094  0.25286752  0.40297224  1.0
  O  O9644  1  0.98068094  0.41953419  0.40297224  1.0
  O  O9645  1  0.98068094  0.58620086  0.40297224  1.0
  O  O9646  1  0.98068094  0.75286752  0.40297224  1.0
  O  O9647  1  0.98068094  0.91953419  0.40297224  1.0
  O  O9648  1  0.06347942  0.16053600  0.53149371  1.0
  O  O9649  1  0.06347942  0.32720267  0.53149371  1.0
  O  O9650  1  0.06347942  0.49386933  0.53149371  1.0
  O  O9651  1  0.06347942  0.66053600  0.53149371  1.0
  O  O9652  1  0.06347942  0.82720267  0.53149371  1.0
  O  O9653  1  0.06347942  0.99386933  0.53149371  1.0
  O  O9654  1  0.14681275  0.16053600  0.53149371  1.0
  O  O9655  1  0.14681275  0.32720267  0.53149371  1.0
  O  O9656  1  0.14681275  0.49386933  0.53149371  1.0
  O  O9657  1  0.14681275  0.66053600  0.53149371  1.0
  O  O9658  1  0.14681275  0.82720267  0.53149371  1.0
  O  O9659  1  0.14681275  0.99386933  0.53149371  1.0
  O  O9660  1  0.23014609  0.16053600  0.53149371  1.0
  O  O9661  1  0.23014609  0.32720267  0.53149371  1.0
  O  O9662  1  0.23014609  0.49386933  0.53149371  1.0
  O  O9663  1  0.23014609  0.66053600  0.53149371  1.0
  O  O9664  1  0.23014609  0.82720267  0.53149371  1.0
  O  O9665  1  0.23014609  0.99386933  0.53149371  1.0
  O  O9666  1  0.31347942  0.16053600  0.53149371  1.0
  O  O9667  1  0.31347942  0.32720267  0.53149371  1.0
  O  O9668  1  0.31347942  0.49386933  0.53149371  1.0
  O  O9669  1  0.31347942  0.66053600  0.53149371  1.0
  O  O9670  1  0.31347942  0.82720267  0.53149371  1.0
  O  O9671  1  0.31347942  0.99386933  0.53149371  1.0
  O  O9672  1  0.39681275  0.16053600  0.53149371  1.0
  O  O9673  1  0.39681275  0.32720267  0.53149371  1.0
  O  O9674  1  0.39681275  0.49386933  0.53149371  1.0
  O  O9675  1  0.39681275  0.66053600  0.53149371  1.0
  O  O9676  1  0.39681275  0.82720267  0.53149371  1.0
  O  O9677  1  0.39681275  0.99386933  0.53149371  1.0
  O  O9678  1  0.48014609  0.16053600  0.53149371  1.0
  O  O9679  1  0.48014609  0.32720267  0.53149371  1.0
  O  O9680  1  0.48014609  0.49386933  0.53149371  1.0
  O  O9681  1  0.48014609  0.66053600  0.53149371  1.0
  O  O9682  1  0.48014609  0.82720267  0.53149371  1.0
  O  O9683  1  0.48014609  0.99386933  0.53149371  1.0
  O  O9684  1  0.56347942  0.16053600  0.53149371  1.0
  O  O9685  1  0.56347942  0.32720267  0.53149371  1.0
  O  O9686  1  0.56347942  0.49386933  0.53149371  1.0
  O  O9687  1  0.56347942  0.66053600  0.53149371  1.0
  O  O9688  1  0.56347942  0.82720267  0.53149371  1.0
  O  O9689  1  0.56347942  0.99386933  0.53149371  1.0
  O  O9690  1  0.64681275  0.16053600  0.53149371  1.0
  O  O9691  1  0.64681275  0.32720267  0.53149371  1.0
  O  O9692  1  0.64681275  0.49386933  0.53149371  1.0
  O  O9693  1  0.64681275  0.66053600  0.53149371  1.0
  O  O9694  1  0.64681275  0.82720267  0.53149371  1.0
  O  O9695  1  0.64681275  0.99386933  0.53149371  1.0
  O  O9696  1  0.73014609  0.16053600  0.53149371  1.0
  O  O9697  1  0.73014609  0.32720267  0.53149371  1.0
  O  O9698  1  0.73014609  0.49386933  0.53149371  1.0
  O  O9699  1  0.73014609  0.66053600  0.53149371  1.0
  O  O9700  1  0.73014609  0.82720267  0.53149371  1.0
  O  O9701  1  0.73014609  0.99386933  0.53149371  1.0
  O  O9702  1  0.81347942  0.16053600  0.53149371  1.0
  O  O9703  1  0.81347942  0.32720267  0.53149371  1.0
  O  O9704  1  0.81347942  0.49386933  0.53149371  1.0
  O  O9705  1  0.81347942  0.66053600  0.53149371  1.0
  O  O9706  1  0.81347942  0.82720267  0.53149371  1.0
  O  O9707  1  0.81347942  0.99386933  0.53149371  1.0
  O  O9708  1  0.89681275  0.16053600  0.53149371  1.0
  O  O9709  1  0.89681275  0.32720267  0.53149371  1.0
  O  O9710  1  0.89681275  0.49386933  0.53149371  1.0
  O  O9711  1  0.89681275  0.66053600  0.53149371  1.0
  O  O9712  1  0.89681275  0.82720267  0.53149371  1.0
  O  O9713  1  0.89681275  0.99386933  0.53149371  1.0
  O  O9714  1  0.98014609  0.16053600  0.53149371  1.0
  O  O9715  1  0.98014609  0.32720267  0.53149371  1.0
  O  O9716  1  0.98014609  0.49386933  0.53149371  1.0
  O  O9717  1  0.98014609  0.66053600  0.53149371  1.0
  O  O9718  1  0.98014609  0.82720267  0.53149371  1.0
  O  O9719  1  0.98014609  0.99386933  0.53149371  1.0
  O  O9720  1  0.03966990  0.14863124  0.60292228  1.0
  O  O9721  1  0.03966990  0.31529791  0.60292228  1.0
  O  O9722  1  0.03966990  0.48196457  0.60292228  1.0
  O  O9723  1  0.03966990  0.64863124  0.60292228  1.0
  O  O9724  1  0.03966990  0.81529791  0.60292228  1.0
  O  O9725  1  0.03966990  0.98196457  0.60292228  1.0
  O  O9726  1  0.12300323  0.14863124  0.60292228  1.0
  O  O9727  1  0.12300323  0.31529791  0.60292228  1.0
  O  O9728  1  0.12300323  0.48196457  0.60292228  1.0
  O  O9729  1  0.12300323  0.64863124  0.60292228  1.0
  O  O9730  1  0.12300323  0.81529791  0.60292228  1.0
  O  O9731  1  0.12300323  0.98196457  0.60292228  1.0
  O  O9732  1  0.20633656  0.14863124  0.60292228  1.0
  O  O9733  1  0.20633656  0.31529791  0.60292228  1.0
  O  O9734  1  0.20633656  0.48196457  0.60292228  1.0
  O  O9735  1  0.20633656  0.64863124  0.60292228  1.0
  O  O9736  1  0.20633656  0.81529791  0.60292228  1.0
  O  O9737  1  0.20633656  0.98196457  0.60292228  1.0
  O  O9738  1  0.28966990  0.14863124  0.60292228  1.0
  O  O9739  1  0.28966990  0.31529791  0.60292228  1.0
  O  O9740  1  0.28966990  0.48196457  0.60292228  1.0
  O  O9741  1  0.28966990  0.64863124  0.60292228  1.0
  O  O9742  1  0.28966990  0.81529791  0.60292228  1.0
  O  O9743  1  0.28966990  0.98196457  0.60292228  1.0
  O  O9744  1  0.37300323  0.14863124  0.60292228  1.0
  O  O9745  1  0.37300323  0.31529791  0.60292228  1.0
  O  O9746  1  0.37300323  0.48196457  0.60292228  1.0
  O  O9747  1  0.37300323  0.64863124  0.60292228  1.0
  O  O9748  1  0.37300323  0.81529791  0.60292228  1.0
  O  O9749  1  0.37300323  0.98196457  0.60292228  1.0
  O  O9750  1  0.45633656  0.14863124  0.60292228  1.0
  O  O9751  1  0.45633656  0.31529791  0.60292228  1.0
  O  O9752  1  0.45633656  0.48196457  0.60292228  1.0
  O  O9753  1  0.45633656  0.64863124  0.60292228  1.0
  O  O9754  1  0.45633656  0.81529791  0.60292228  1.0
  O  O9755  1  0.45633656  0.98196457  0.60292228  1.0
  O  O9756  1  0.53966990  0.14863124  0.60292228  1.0
  O  O9757  1  0.53966990  0.31529791  0.60292228  1.0
  O  O9758  1  0.53966990  0.48196457  0.60292228  1.0
  O  O9759  1  0.53966990  0.64863124  0.60292228  1.0
  O  O9760  1  0.53966990  0.81529791  0.60292228  1.0
  O  O9761  1  0.53966990  0.98196457  0.60292228  1.0
  O  O9762  1  0.62300323  0.14863124  0.60292228  1.0
  O  O9763  1  0.62300323  0.31529791  0.60292228  1.0
  O  O9764  1  0.62300323  0.48196457  0.60292228  1.0
  O  O9765  1  0.62300323  0.64863124  0.60292228  1.0
  O  O9766  1  0.62300323  0.81529791  0.60292228  1.0
  O  O9767  1  0.62300323  0.98196457  0.60292228  1.0
  O  O9768  1  0.70633656  0.14863124  0.60292228  1.0
  O  O9769  1  0.70633656  0.31529791  0.60292228  1.0
  O  O9770  1  0.70633656  0.48196457  0.60292228  1.0
  O  O9771  1  0.70633656  0.64863124  0.60292228  1.0
  O  O9772  1  0.70633656  0.81529791  0.60292228  1.0
  O  O9773  1  0.70633656  0.98196457  0.60292228  1.0
  O  O9774  1  0.78966990  0.14863124  0.60292228  1.0
  O  O9775  1  0.78966990  0.31529791  0.60292228  1.0
  O  O9776  1  0.78966990  0.48196457  0.60292228  1.0
  O  O9777  1  0.78966990  0.64863124  0.60292228  1.0
  O  O9778  1  0.78966990  0.81529791  0.60292228  1.0
  O  O9779  1  0.78966990  0.98196457  0.60292228  1.0
  O  O9780  1  0.87300323  0.14863124  0.60292228  1.0
  O  O9781  1  0.87300323  0.31529791  0.60292228  1.0
  O  O9782  1  0.87300323  0.48196457  0.60292228  1.0
  O  O9783  1  0.87300323  0.64863124  0.60292228  1.0
  O  O9784  1  0.87300323  0.81529791  0.60292228  1.0
  O  O9785  1  0.87300323  0.98196457  0.60292228  1.0
  O  O9786  1  0.95633656  0.14863124  0.60292228  1.0
  O  O9787  1  0.95633656  0.31529791  0.60292228  1.0
  O  O9788  1  0.95633656  0.48196457  0.60292228  1.0
  O  O9789  1  0.95633656  0.64863124  0.60292228  1.0
  O  O9790  1  0.95633656  0.81529791  0.60292228  1.0
  O  O9791  1  0.95633656  0.98196457  0.60292228  1.0
  O  O9792  1  0.06777865  0.11571369  0.52074704  1.0
  O  O9793  1  0.06777865  0.28238036  0.52074704  1.0
  O  O9794  1  0.06777865  0.44904703  0.52074704  1.0
  O  O9795  1  0.06777865  0.61571369  0.52074704  1.0
  O  O9796  1  0.06777865  0.78238036  0.52074704  1.0
  O  O9797  1  0.06777865  0.94904703  0.52074704  1.0
  O  O9798  1  0.15111198  0.11571369  0.52074704  1.0
  O  O9799  1  0.15111198  0.28238036  0.52074704  1.0
  O  O9800  1  0.15111198  0.44904703  0.52074704  1.0
  O  O9801  1  0.15111198  0.61571369  0.52074704  1.0
  O  O9802  1  0.15111198  0.78238036  0.52074704  1.0
  O  O9803  1  0.15111198  0.94904703  0.52074704  1.0
  O  O9804  1  0.23444531  0.11571369  0.52074704  1.0
  O  O9805  1  0.23444531  0.28238036  0.52074704  1.0
  O  O9806  1  0.23444531  0.44904703  0.52074704  1.0
  O  O9807  1  0.23444531  0.61571369  0.52074704  1.0
  O  O9808  1  0.23444531  0.78238036  0.52074704  1.0
  O  O9809  1  0.23444531  0.94904703  0.52074704  1.0
  O  O9810  1  0.31777865  0.11571369  0.52074704  1.0
  O  O9811  1  0.31777865  0.28238036  0.52074704  1.0
  O  O9812  1  0.31777865  0.44904703  0.52074704  1.0
  O  O9813  1  0.31777865  0.61571369  0.52074704  1.0
  O  O9814  1  0.31777865  0.78238036  0.52074704  1.0
  O  O9815  1  0.31777865  0.94904703  0.52074704  1.0
  O  O9816  1  0.40111198  0.11571369  0.52074704  1.0
  O  O9817  1  0.40111198  0.28238036  0.52074704  1.0
  O  O9818  1  0.40111198  0.44904703  0.52074704  1.0
  O  O9819  1  0.40111198  0.61571369  0.52074704  1.0
  O  O9820  1  0.40111198  0.78238036  0.52074704  1.0
  O  O9821  1  0.40111198  0.94904703  0.52074704  1.0
  O  O9822  1  0.48444531  0.11571369  0.52074704  1.0
  O  O9823  1  0.48444531  0.28238036  0.52074704  1.0
  O  O9824  1  0.48444531  0.44904703  0.52074704  1.0
  O  O9825  1  0.48444531  0.61571369  0.52074704  1.0
  O  O9826  1  0.48444531  0.78238036  0.52074704  1.0
  O  O9827  1  0.48444531  0.94904703  0.52074704  1.0
  O  O9828  1  0.56777865  0.11571369  0.52074704  1.0
  O  O9829  1  0.56777865  0.28238036  0.52074704  1.0
  O  O9830  1  0.56777865  0.44904703  0.52074704  1.0
  O  O9831  1  0.56777865  0.61571369  0.52074704  1.0
  O  O9832  1  0.56777865  0.78238036  0.52074704  1.0
  O  O9833  1  0.56777865  0.94904703  0.52074704  1.0
  O  O9834  1  0.65111198  0.11571369  0.52074704  1.0
  O  O9835  1  0.65111198  0.28238036  0.52074704  1.0
  O  O9836  1  0.65111198  0.44904703  0.52074704  1.0
  O  O9837  1  0.65111198  0.61571369  0.52074704  1.0
  O  O9838  1  0.65111198  0.78238036  0.52074704  1.0
  O  O9839  1  0.65111198  0.94904703  0.52074704  1.0
  O  O9840  1  0.73444531  0.11571369  0.52074704  1.0
  O  O9841  1  0.73444531  0.28238036  0.52074704  1.0
  O  O9842  1  0.73444531  0.44904703  0.52074704  1.0
  O  O9843  1  0.73444531  0.61571369  0.52074704  1.0
  O  O9844  1  0.73444531  0.78238036  0.52074704  1.0
  O  O9845  1  0.73444531  0.94904703  0.52074704  1.0
  O  O9846  1  0.81777865  0.11571369  0.52074704  1.0
  O  O9847  1  0.81777865  0.28238036  0.52074704  1.0
  O  O9848  1  0.81777865  0.44904703  0.52074704  1.0
  O  O9849  1  0.81777865  0.61571369  0.52074704  1.0
  O  O9850  1  0.81777865  0.78238036  0.52074704  1.0
  O  O9851  1  0.81777865  0.94904703  0.52074704  1.0
  O  O9852  1  0.90111198  0.11571369  0.52074704  1.0
  O  O9853  1  0.90111198  0.28238036  0.52074704  1.0
  O  O9854  1  0.90111198  0.44904703  0.52074704  1.0
  O  O9855  1  0.90111198  0.61571369  0.52074704  1.0
  O  O9856  1  0.90111198  0.78238036  0.52074704  1.0
  O  O9857  1  0.90111198  0.94904703  0.52074704  1.0
  O  O9858  1  0.98444531  0.11571369  0.52074704  1.0
  O  O9859  1  0.98444531  0.28238036  0.52074704  1.0
  O  O9860  1  0.98444531  0.44904703  0.52074704  1.0
  O  O9861  1  0.98444531  0.61571369  0.52074704  1.0
  O  O9862  1  0.98444531  0.78238036  0.52074704  1.0
  O  O9863  1  0.98444531  0.94904703  0.52074704  1.0
  O  O9864  1  0.04396912  0.10380893  0.59217561  1.0
  O  O9865  1  0.04396912  0.27047560  0.59217561  1.0
  O  O9866  1  0.04396912  0.43714226  0.59217561  1.0
  O  O9867  1  0.04396912  0.60380893  0.59217561  1.0
  O  O9868  1  0.04396912  0.77047560  0.59217561  1.0
  O  O9869  1  0.04396912  0.93714226  0.59217561  1.0
  O  O9870  1  0.12730246  0.10380893  0.59217561  1.0
  O  O9871  1  0.12730246  0.27047560  0.59217561  1.0
  O  O9872  1  0.12730246  0.43714226  0.59217561  1.0
  O  O9873  1  0.12730246  0.60380893  0.59217561  1.0
  O  O9874  1  0.12730246  0.77047560  0.59217561  1.0
  O  O9875  1  0.12730246  0.93714226  0.59217561  1.0
  O  O9876  1  0.21063579  0.10380893  0.59217561  1.0
  O  O9877  1  0.21063579  0.27047560  0.59217561  1.0
  O  O9878  1  0.21063579  0.43714226  0.59217561  1.0
  O  O9879  1  0.21063579  0.60380893  0.59217561  1.0
  O  O9880  1  0.21063579  0.77047560  0.59217561  1.0
  O  O9881  1  0.21063579  0.93714226  0.59217561  1.0
  O  O9882  1  0.29396912  0.10380893  0.59217561  1.0
  O  O9883  1  0.29396912  0.27047560  0.59217561  1.0
  O  O9884  1  0.29396912  0.43714226  0.59217561  1.0
  O  O9885  1  0.29396912  0.60380893  0.59217561  1.0
  O  O9886  1  0.29396912  0.77047560  0.59217561  1.0
  O  O9887  1  0.29396912  0.93714226  0.59217561  1.0
  O  O9888  1  0.37730246  0.10380893  0.59217561  1.0
  O  O9889  1  0.37730246  0.27047560  0.59217561  1.0
  O  O9890  1  0.37730246  0.43714226  0.59217561  1.0
  O  O9891  1  0.37730246  0.60380893  0.59217561  1.0
  O  O9892  1  0.37730246  0.77047560  0.59217561  1.0
  O  O9893  1  0.37730246  0.93714226  0.59217561  1.0
  O  O9894  1  0.46063579  0.10380893  0.59217561  1.0
  O  O9895  1  0.46063579  0.27047560  0.59217561  1.0
  O  O9896  1  0.46063579  0.43714226  0.59217561  1.0
  O  O9897  1  0.46063579  0.60380893  0.59217561  1.0
  O  O9898  1  0.46063579  0.77047560  0.59217561  1.0
  O  O9899  1  0.46063579  0.93714226  0.59217561  1.0
  O  O9900  1  0.54396912  0.10380893  0.59217561  1.0
  O  O9901  1  0.54396912  0.27047560  0.59217561  1.0
  O  O9902  1  0.54396912  0.43714226  0.59217561  1.0
  O  O9903  1  0.54396912  0.60380893  0.59217561  1.0
  O  O9904  1  0.54396912  0.77047560  0.59217561  1.0
  O  O9905  1  0.54396912  0.93714226  0.59217561  1.0
  O  O9906  1  0.62730246  0.10380893  0.59217561  1.0
  O  O9907  1  0.62730246  0.27047560  0.59217561  1.0
  O  O9908  1  0.62730246  0.43714226  0.59217561  1.0
  O  O9909  1  0.62730246  0.60380893  0.59217561  1.0
  O  O9910  1  0.62730246  0.77047560  0.59217561  1.0
  O  O9911  1  0.62730246  0.93714226  0.59217561  1.0
  O  O9912  1  0.71063579  0.10380893  0.59217561  1.0
  O  O9913  1  0.71063579  0.27047560  0.59217561  1.0
  O  O9914  1  0.71063579  0.43714226  0.59217561  1.0
  O  O9915  1  0.71063579  0.60380893  0.59217561  1.0
  O  O9916  1  0.71063579  0.77047560  0.59217561  1.0
  O  O9917  1  0.71063579  0.93714226  0.59217561  1.0
  O  O9918  1  0.79396912  0.10380893  0.59217561  1.0
  O  O9919  1  0.79396912  0.27047560  0.59217561  1.0
  O  O9920  1  0.79396912  0.43714226  0.59217561  1.0
  O  O9921  1  0.79396912  0.60380893  0.59217561  1.0
  O  O9922  1  0.79396912  0.77047560  0.59217561  1.0
  O  O9923  1  0.79396912  0.93714226  0.59217561  1.0
  O  O9924  1  0.87730246  0.10380893  0.59217561  1.0
  O  O9925  1  0.87730246  0.27047560  0.59217561  1.0
  O  O9926  1  0.87730246  0.43714226  0.59217561  1.0
  O  O9927  1  0.87730246  0.60380893  0.59217561  1.0
  O  O9928  1  0.87730246  0.77047560  0.59217561  1.0
  O  O9929  1  0.87730246  0.93714226  0.59217561  1.0
  O  O9930  1  0.96063579  0.10380893  0.59217561  1.0
  O  O9931  1  0.96063579  0.27047560  0.59217561  1.0
  O  O9932  1  0.96063579  0.43714226  0.59217561  1.0
  O  O9933  1  0.96063579  0.60380893  0.59217561  1.0
  O  O9934  1  0.96063579  0.77047560  0.59217561  1.0
  O  O9935  1  0.96063579  0.93714226  0.59217561  1.0
  O  O9936  1  0.02065064  0.01649224  0.53645350  1.0
  O  O9937  1  0.02065064  0.18315891  0.53645350  1.0
  O  O9938  1  0.02065064  0.34982558  0.53645350  1.0
  O  O9939  1  0.02065064  0.51649224  0.53645350  1.0
  O  O9940  1  0.02065064  0.68315891  0.53645350  1.0
  O  O9941  1  0.02065064  0.84982558  0.53645350  1.0
  O  O9942  1  0.10398397  0.01649224  0.53645350  1.0
  O  O9943  1  0.10398397  0.18315891  0.53645350  1.0
  O  O9944  1  0.10398397  0.34982558  0.53645350  1.0
  O  O9945  1  0.10398397  0.51649224  0.53645350  1.0
  O  O9946  1  0.10398397  0.68315891  0.53645350  1.0
  O  O9947  1  0.10398397  0.84982558  0.53645350  1.0
  O  O9948  1  0.18731731  0.01649224  0.53645350  1.0
  O  O9949  1  0.18731731  0.18315891  0.53645350  1.0
  O  O9950  1  0.18731731  0.34982558  0.53645350  1.0
  O  O9951  1  0.18731731  0.51649224  0.53645350  1.0
  O  O9952  1  0.18731731  0.68315891  0.53645350  1.0
  O  O9953  1  0.18731731  0.84982558  0.53645350  1.0
  O  O9954  1  0.27065064  0.01649224  0.53645350  1.0
  O  O9955  1  0.27065064  0.18315891  0.53645350  1.0
  O  O9956  1  0.27065064  0.34982558  0.53645350  1.0
  O  O9957  1  0.27065064  0.51649224  0.53645350  1.0
  O  O9958  1  0.27065064  0.68315891  0.53645350  1.0
  O  O9959  1  0.27065064  0.84982558  0.53645350  1.0
  O  O9960  1  0.35398397  0.01649224  0.53645350  1.0
  O  O9961  1  0.35398397  0.18315891  0.53645350  1.0
  O  O9962  1  0.35398397  0.34982558  0.53645350  1.0
  O  O9963  1  0.35398397  0.51649224  0.53645350  1.0
  O  O9964  1  0.35398397  0.68315891  0.53645350  1.0
  O  O9965  1  0.35398397  0.84982558  0.53645350  1.0
  O  O9966  1  0.43731731  0.01649224  0.53645350  1.0
  O  O9967  1  0.43731731  0.18315891  0.53645350  1.0
  O  O9968  1  0.43731731  0.34982558  0.53645350  1.0
  O  O9969  1  0.43731731  0.51649224  0.53645350  1.0
  O  O9970  1  0.43731731  0.68315891  0.53645350  1.0
  O  O9971  1  0.43731731  0.84982558  0.53645350  1.0
  O  O9972  1  0.52065064  0.01649224  0.53645350  1.0
  O  O9973  1  0.52065064  0.18315891  0.53645350  1.0
  O  O9974  1  0.52065064  0.34982558  0.53645350  1.0
  O  O9975  1  0.52065064  0.51649224  0.53645350  1.0
  O  O9976  1  0.52065064  0.68315891  0.53645350  1.0
  O  O9977  1  0.52065064  0.84982558  0.53645350  1.0
  O  O9978  1  0.60398397  0.01649224  0.53645350  1.0
  O  O9979  1  0.60398397  0.18315891  0.53645350  1.0
  O  O9980  1  0.60398397  0.34982558  0.53645350  1.0
  O  O9981  1  0.60398397  0.51649224  0.53645350  1.0
  O  O9982  1  0.60398397  0.68315891  0.53645350  1.0
  O  O9983  1  0.60398397  0.84982558  0.53645350  1.0
  O  O9984  1  0.68731731  0.01649224  0.53645350  1.0
  O  O9985  1  0.68731731  0.18315891  0.53645350  1.0
  O  O9986  1  0.68731731  0.34982558  0.53645350  1.0
  O  O9987  1  0.68731731  0.51649224  0.53645350  1.0
  O  O9988  1  0.68731731  0.68315891  0.53645350  1.0
  O  O9989  1  0.68731731  0.84982558  0.53645350  1.0
  O  O9990  1  0.77065064  0.01649224  0.53645350  1.0
  O  O9991  1  0.77065064  0.18315891  0.53645350  1.0
  O  O9992  1  0.77065064  0.34982558  0.53645350  1.0
  O  O9993  1  0.77065064  0.51649224  0.53645350  1.0
  O  O9994  1  0.77065064  0.68315891  0.53645350  1.0
  O  O9995  1  0.77065064  0.84982558  0.53645350  1.0
  O  O9996  1  0.85398397  0.01649224  0.53645350  1.0
  O  O9997  1  0.85398397  0.18315891  0.53645350  1.0
  O  O9998  1  0.85398397  0.34982558  0.53645350  1.0
  O  O9999  1  0.85398397  0.51649224  0.53645350  1.0
  O  O10000  1  0.85398397  0.68315891  0.53645350  1.0
  O  O10001  1  0.85398397  0.84982558  0.53645350  1.0
  O  O10002  1  0.93731731  0.01649224  0.53645350  1.0
  O  O10003  1  0.93731731  0.18315891  0.53645350  1.0
  O  O10004  1  0.93731731  0.34982558  0.53645350  1.0
  O  O10005  1  0.93731731  0.51649224  0.53645350  1.0
  O  O10006  1  0.93731731  0.68315891  0.53645350  1.0
  O  O10007  1  0.93731731  0.84982558  0.53645350  1.0
  O  O10008  1  0.08017445  0.00458748  0.60788207  1.0
  O  O10009  1  0.08017445  0.17125415  0.60788207  1.0
  O  O10010  1  0.08017445  0.33792081  0.60788207  1.0
  O  O10011  1  0.08017445  0.50458748  0.60788207  1.0
  O  O10012  1  0.08017445  0.67125415  0.60788207  1.0
  O  O10013  1  0.08017445  0.83792081  0.60788207  1.0
  O  O10014  1  0.16350778  0.00458748  0.60788207  1.0
  O  O10015  1  0.16350778  0.17125415  0.60788207  1.0
  O  O10016  1  0.16350778  0.33792081  0.60788207  1.0
  O  O10017  1  0.16350778  0.50458748  0.60788207  1.0
  O  O10018  1  0.16350778  0.67125415  0.60788207  1.0
  O  O10019  1  0.16350778  0.83792081  0.60788207  1.0
  O  O10020  1  0.24684112  0.00458748  0.60788207  1.0
  O  O10021  1  0.24684112  0.17125415  0.60788207  1.0
  O  O10022  1  0.24684112  0.33792081  0.60788207  1.0
  O  O10023  1  0.24684112  0.50458748  0.60788207  1.0
  O  O10024  1  0.24684112  0.67125415  0.60788207  1.0
  O  O10025  1  0.24684112  0.83792081  0.60788207  1.0
  O  O10026  1  0.33017445  0.00458748  0.60788207  1.0
  O  O10027  1  0.33017445  0.17125415  0.60788207  1.0
  O  O10028  1  0.33017445  0.33792081  0.60788207  1.0
  O  O10029  1  0.33017445  0.50458748  0.60788207  1.0
  O  O10030  1  0.33017445  0.67125415  0.60788207  1.0
  O  O10031  1  0.33017445  0.83792081  0.60788207  1.0
  O  O10032  1  0.41350778  0.00458748  0.60788207  1.0
  O  O10033  1  0.41350778  0.17125415  0.60788207  1.0
  O  O10034  1  0.41350778  0.33792081  0.60788207  1.0
  O  O10035  1  0.41350778  0.50458748  0.60788207  1.0
  O  O10036  1  0.41350778  0.67125415  0.60788207  1.0
  O  O10037  1  0.41350778  0.83792081  0.60788207  1.0
  O  O10038  1  0.49684112  0.00458748  0.60788207  1.0
  O  O10039  1  0.49684112  0.17125415  0.60788207  1.0
  O  O10040  1  0.49684112  0.33792081  0.60788207  1.0
  O  O10041  1  0.49684112  0.50458748  0.60788207  1.0
  O  O10042  1  0.49684112  0.67125415  0.60788207  1.0
  O  O10043  1  0.49684112  0.83792081  0.60788207  1.0
  O  O10044  1  0.58017445  0.00458748  0.60788207  1.0
  O  O10045  1  0.58017445  0.17125415  0.60788207  1.0
  O  O10046  1  0.58017445  0.33792081  0.60788207  1.0
  O  O10047  1  0.58017445  0.50458748  0.60788207  1.0
  O  O10048  1  0.58017445  0.67125415  0.60788207  1.0
  O  O10049  1  0.58017445  0.83792081  0.60788207  1.0
  O  O10050  1  0.66350778  0.00458748  0.60788207  1.0
  O  O10051  1  0.66350778  0.17125415  0.60788207  1.0
  O  O10052  1  0.66350778  0.33792081  0.60788207  1.0
  O  O10053  1  0.66350778  0.50458748  0.60788207  1.0
  O  O10054  1  0.66350778  0.67125415  0.60788207  1.0
  O  O10055  1  0.66350778  0.83792081  0.60788207  1.0
  O  O10056  1  0.74684112  0.00458748  0.60788207  1.0
  O  O10057  1  0.74684112  0.17125415  0.60788207  1.0
  O  O10058  1  0.74684112  0.33792081  0.60788207  1.0
  O  O10059  1  0.74684112  0.50458748  0.60788207  1.0
  O  O10060  1  0.74684112  0.67125415  0.60788207  1.0
  O  O10061  1  0.74684112  0.83792081  0.60788207  1.0
  O  O10062  1  0.83017445  0.00458748  0.60788207  1.0
  O  O10063  1  0.83017445  0.17125415  0.60788207  1.0
  O  O10064  1  0.83017445  0.33792081  0.60788207  1.0
  O  O10065  1  0.83017445  0.50458748  0.60788207  1.0
  O  O10066  1  0.83017445  0.67125415  0.60788207  1.0
  O  O10067  1  0.83017445  0.83792081  0.60788207  1.0
  O  O10068  1  0.91350778  0.00458748  0.60788207  1.0
  O  O10069  1  0.91350778  0.17125415  0.60788207  1.0
  O  O10070  1  0.91350778  0.33792081  0.60788207  1.0
  O  O10071  1  0.91350778  0.50458748  0.60788207  1.0
  O  O10072  1  0.91350778  0.67125415  0.60788207  1.0
  O  O10073  1  0.91350778  0.83792081  0.60788207  1.0
  O  O10074  1  0.99684112  0.00458748  0.60788207  1.0
  O  O10075  1  0.99684112  0.17125415  0.60788207  1.0
  O  O10076  1  0.99684112  0.33792081  0.60788207  1.0
  O  O10077  1  0.99684112  0.50458748  0.60788207  1.0
  O  O10078  1  0.99684112  0.67125415  0.60788207  1.0
  O  O10079  1  0.99684112  0.83792081  0.60788207  1.0
  O  O10080  1  0.02348335  0.13819941  0.52705738  1.0
  O  O10081  1  0.02348335  0.30486607  0.52705738  1.0
  O  O10082  1  0.02348335  0.47153274  0.52705738  1.0
  O  O10083  1  0.02348335  0.63819941  0.52705738  1.0
  O  O10084  1  0.02348335  0.80486607  0.52705738  1.0
  O  O10085  1  0.02348335  0.97153274  0.52705738  1.0
  O  O10086  1  0.10681668  0.13819941  0.52705738  1.0
  O  O10087  1  0.10681668  0.30486607  0.52705738  1.0
  O  O10088  1  0.10681668  0.47153274  0.52705738  1.0
  O  O10089  1  0.10681668  0.63819941  0.52705738  1.0
  O  O10090  1  0.10681668  0.80486607  0.52705738  1.0
  O  O10091  1  0.10681668  0.97153274  0.52705738  1.0
  O  O10092  1  0.19015002  0.13819941  0.52705738  1.0
  O  O10093  1  0.19015002  0.30486607  0.52705738  1.0
  O  O10094  1  0.19015002  0.47153274  0.52705738  1.0
  O  O10095  1  0.19015002  0.63819941  0.52705738  1.0
  O  O10096  1  0.19015002  0.80486607  0.52705738  1.0
  O  O10097  1  0.19015002  0.97153274  0.52705738  1.0
  O  O10098  1  0.27348335  0.13819941  0.52705738  1.0
  O  O10099  1  0.27348335  0.30486607  0.52705738  1.0
  O  O10100  1  0.27348335  0.47153274  0.52705738  1.0
  O  O10101  1  0.27348335  0.63819941  0.52705738  1.0
  O  O10102  1  0.27348335  0.80486607  0.52705738  1.0
  O  O10103  1  0.27348335  0.97153274  0.52705738  1.0
  O  O10104  1  0.35681668  0.13819941  0.52705738  1.0
  O  O10105  1  0.35681668  0.30486607  0.52705738  1.0
  O  O10106  1  0.35681668  0.47153274  0.52705738  1.0
  O  O10107  1  0.35681668  0.63819941  0.52705738  1.0
  O  O10108  1  0.35681668  0.80486607  0.52705738  1.0
  O  O10109  1  0.35681668  0.97153274  0.52705738  1.0
  O  O10110  1  0.44015002  0.13819941  0.52705738  1.0
  O  O10111  1  0.44015002  0.30486607  0.52705738  1.0
  O  O10112  1  0.44015002  0.47153274  0.52705738  1.0
  O  O10113  1  0.44015002  0.63819941  0.52705738  1.0
  O  O10114  1  0.44015002  0.80486607  0.52705738  1.0
  O  O10115  1  0.44015002  0.97153274  0.52705738  1.0
  O  O10116  1  0.52348335  0.13819941  0.52705738  1.0
  O  O10117  1  0.52348335  0.30486607  0.52705738  1.0
  O  O10118  1  0.52348335  0.47153274  0.52705738  1.0
  O  O10119  1  0.52348335  0.63819941  0.52705738  1.0
  O  O10120  1  0.52348335  0.80486607  0.52705738  1.0
  O  O10121  1  0.52348335  0.97153274  0.52705738  1.0
  O  O10122  1  0.60681668  0.13819941  0.52705738  1.0
  O  O10123  1  0.60681668  0.30486607  0.52705738  1.0
  O  O10124  1  0.60681668  0.47153274  0.52705738  1.0
  O  O10125  1  0.60681668  0.63819941  0.52705738  1.0
  O  O10126  1  0.60681668  0.80486607  0.52705738  1.0
  O  O10127  1  0.60681668  0.97153274  0.52705738  1.0
  O  O10128  1  0.69015002  0.13819941  0.52705738  1.0
  O  O10129  1  0.69015002  0.30486607  0.52705738  1.0
  O  O10130  1  0.69015002  0.47153274  0.52705738  1.0
  O  O10131  1  0.69015002  0.63819941  0.52705738  1.0
  O  O10132  1  0.69015002  0.80486607  0.52705738  1.0
  O  O10133  1  0.69015002  0.97153274  0.52705738  1.0
  O  O10134  1  0.77348335  0.13819941  0.52705738  1.0
  O  O10135  1  0.77348335  0.30486607  0.52705738  1.0
  O  O10136  1  0.77348335  0.47153274  0.52705738  1.0
  O  O10137  1  0.77348335  0.63819941  0.52705738  1.0
  O  O10138  1  0.77348335  0.80486607  0.52705738  1.0
  O  O10139  1  0.77348335  0.97153274  0.52705738  1.0
  O  O10140  1  0.85681668  0.13819941  0.52705738  1.0
  O  O10141  1  0.85681668  0.30486607  0.52705738  1.0
  O  O10142  1  0.85681668  0.47153274  0.52705738  1.0
  O  O10143  1  0.85681668  0.63819941  0.52705738  1.0
  O  O10144  1  0.85681668  0.80486607  0.52705738  1.0
  O  O10145  1  0.85681668  0.97153274  0.52705738  1.0
  O  O10146  1  0.94015002  0.13819941  0.52705738  1.0
  O  O10147  1  0.94015002  0.30486607  0.52705738  1.0
  O  O10148  1  0.94015002  0.47153274  0.52705738  1.0
  O  O10149  1  0.94015002  0.63819941  0.52705738  1.0
  O  O10150  1  0.94015002  0.80486607  0.52705738  1.0
  O  O10151  1  0.94015002  0.97153274  0.52705738  1.0
  O  O10152  1  0.08300716  0.12629465  0.59848595  1.0
  O  O10153  1  0.08300716  0.29296131  0.59848595  1.0
  O  O10154  1  0.08300716  0.45962798  0.59848595  1.0
  O  O10155  1  0.08300716  0.62629465  0.59848595  1.0
  O  O10156  1  0.08300716  0.79296131  0.59848595  1.0
  O  O10157  1  0.08300716  0.95962798  0.59848595  1.0
  O  O10158  1  0.16634049  0.12629465  0.59848595  1.0
  O  O10159  1  0.16634049  0.29296131  0.59848595  1.0
  O  O10160  1  0.16634049  0.45962798  0.59848595  1.0
  O  O10161  1  0.16634049  0.62629465  0.59848595  1.0
  O  O10162  1  0.16634049  0.79296131  0.59848595  1.0
  O  O10163  1  0.16634049  0.95962798  0.59848595  1.0
  O  O10164  1  0.24967383  0.12629465  0.59848595  1.0
  O  O10165  1  0.24967383  0.29296131  0.59848595  1.0
  O  O10166  1  0.24967383  0.45962798  0.59848595  1.0
  O  O10167  1  0.24967383  0.62629465  0.59848595  1.0
  O  O10168  1  0.24967383  0.79296131  0.59848595  1.0
  O  O10169  1  0.24967383  0.95962798  0.59848595  1.0
  O  O10170  1  0.33300716  0.12629465  0.59848595  1.0
  O  O10171  1  0.33300716  0.29296131  0.59848595  1.0
  O  O10172  1  0.33300716  0.45962798  0.59848595  1.0
  O  O10173  1  0.33300716  0.62629465  0.59848595  1.0
  O  O10174  1  0.33300716  0.79296131  0.59848595  1.0
  O  O10175  1  0.33300716  0.95962798  0.59848595  1.0
  O  O10176  1  0.41634049  0.12629465  0.59848595  1.0
  O  O10177  1  0.41634049  0.29296131  0.59848595  1.0
  O  O10178  1  0.41634049  0.45962798  0.59848595  1.0
  O  O10179  1  0.41634049  0.62629465  0.59848595  1.0
  O  O10180  1  0.41634049  0.79296131  0.59848595  1.0
  O  O10181  1  0.41634049  0.95962798  0.59848595  1.0
  O  O10182  1  0.49967383  0.12629465  0.59848595  1.0
  O  O10183  1  0.49967383  0.29296131  0.59848595  1.0
  O  O10184  1  0.49967383  0.45962798  0.59848595  1.0
  O  O10185  1  0.49967383  0.62629465  0.59848595  1.0
  O  O10186  1  0.49967383  0.79296131  0.59848595  1.0
  O  O10187  1  0.49967383  0.95962798  0.59848595  1.0
  O  O10188  1  0.58300716  0.12629465  0.59848595  1.0
  O  O10189  1  0.58300716  0.29296131  0.59848595  1.0
  O  O10190  1  0.58300716  0.45962798  0.59848595  1.0
  O  O10191  1  0.58300716  0.62629465  0.59848595  1.0
  O  O10192  1  0.58300716  0.79296131  0.59848595  1.0
  O  O10193  1  0.58300716  0.95962798  0.59848595  1.0
  O  O10194  1  0.66634049  0.12629465  0.59848595  1.0
  O  O10195  1  0.66634049  0.29296131  0.59848595  1.0
  O  O10196  1  0.66634049  0.45962798  0.59848595  1.0
  O  O10197  1  0.66634049  0.62629465  0.59848595  1.0
  O  O10198  1  0.66634049  0.79296131  0.59848595  1.0
  O  O10199  1  0.66634049  0.95962798  0.59848595  1.0
  O  O10200  1  0.74967383  0.12629465  0.59848595  1.0
  O  O10201  1  0.74967383  0.29296131  0.59848595  1.0
  O  O10202  1  0.74967383  0.45962798  0.59848595  1.0
  O  O10203  1  0.74967383  0.62629465  0.59848595  1.0
  O  O10204  1  0.74967383  0.79296131  0.59848595  1.0
  O  O10205  1  0.74967383  0.95962798  0.59848595  1.0
  O  O10206  1  0.83300716  0.12629465  0.59848595  1.0
  O  O10207  1  0.83300716  0.29296131  0.59848595  1.0
  O  O10208  1  0.83300716  0.45962798  0.59848595  1.0
  O  O10209  1  0.83300716  0.62629465  0.59848595  1.0
  O  O10210  1  0.83300716  0.79296131  0.59848595  1.0
  O  O10211  1  0.83300716  0.95962798  0.59848595  1.0
  O  O10212  1  0.91634049  0.12629465  0.59848595  1.0
  O  O10213  1  0.91634049  0.29296131  0.59848595  1.0
  O  O10214  1  0.91634049  0.45962798  0.59848595  1.0
  O  O10215  1  0.91634049  0.62629465  0.59848595  1.0
  O  O10216  1  0.91634049  0.79296131  0.59848595  1.0
  O  O10217  1  0.91634049  0.95962798  0.59848595  1.0
  O  O10218  1  0.99967383  0.12629465  0.59848595  1.0
  O  O10219  1  0.99967383  0.29296131  0.59848595  1.0
  O  O10220  1  0.99967383  0.45962798  0.59848595  1.0
  O  O10221  1  0.99967383  0.62629465  0.59848595  1.0
  O  O10222  1  0.99967383  0.79296131  0.59848595  1.0
  O  O10223  1  0.99967383  0.95962798  0.59848595  1.0
  O  O10224  1  0.02891642  0.12106472  0.63375672  1.0
  O  O10225  1  0.02891642  0.28773139  0.63375672  1.0
  O  O10226  1  0.02891642  0.45439805  0.63375672  1.0
  O  O10227  1  0.02891642  0.62106472  0.63375672  1.0
  O  O10228  1  0.02891642  0.78773139  0.63375672  1.0
  O  O10229  1  0.02891642  0.95439805  0.63375672  1.0
  O  O10230  1  0.11224975  0.12106472  0.63375672  1.0
  O  O10231  1  0.11224975  0.28773139  0.63375672  1.0
  O  O10232  1  0.11224975  0.45439805  0.63375672  1.0
  O  O10233  1  0.11224975  0.62106472  0.63375672  1.0
  O  O10234  1  0.11224975  0.78773139  0.63375672  1.0
  O  O10235  1  0.11224975  0.95439805  0.63375672  1.0
  O  O10236  1  0.19558309  0.12106472  0.63375672  1.0
  O  O10237  1  0.19558309  0.28773139  0.63375672  1.0
  O  O10238  1  0.19558309  0.45439805  0.63375672  1.0
  O  O10239  1  0.19558309  0.62106472  0.63375672  1.0
  O  O10240  1  0.19558309  0.78773139  0.63375672  1.0
  O  O10241  1  0.19558309  0.95439805  0.63375672  1.0
  O  O10242  1  0.27891642  0.12106472  0.63375672  1.0
  O  O10243  1  0.27891642  0.28773139  0.63375672  1.0
  O  O10244  1  0.27891642  0.45439805  0.63375672  1.0
  O  O10245  1  0.27891642  0.62106472  0.63375672  1.0
  O  O10246  1  0.27891642  0.78773139  0.63375672  1.0
  O  O10247  1  0.27891642  0.95439805  0.63375672  1.0
  O  O10248  1  0.36224975  0.12106472  0.63375672  1.0
  O  O10249  1  0.36224975  0.28773139  0.63375672  1.0
  O  O10250  1  0.36224975  0.45439805  0.63375672  1.0
  O  O10251  1  0.36224975  0.62106472  0.63375672  1.0
  O  O10252  1  0.36224975  0.78773139  0.63375672  1.0
  O  O10253  1  0.36224975  0.95439805  0.63375672  1.0
  O  O10254  1  0.44558309  0.12106472  0.63375672  1.0
  O  O10255  1  0.44558309  0.28773139  0.63375672  1.0
  O  O10256  1  0.44558309  0.45439805  0.63375672  1.0
  O  O10257  1  0.44558309  0.62106472  0.63375672  1.0
  O  O10258  1  0.44558309  0.78773139  0.63375672  1.0
  O  O10259  1  0.44558309  0.95439805  0.63375672  1.0
  O  O10260  1  0.52891642  0.12106472  0.63375672  1.0
  O  O10261  1  0.52891642  0.28773139  0.63375672  1.0
  O  O10262  1  0.52891642  0.45439805  0.63375672  1.0
  O  O10263  1  0.52891642  0.62106472  0.63375672  1.0
  O  O10264  1  0.52891642  0.78773139  0.63375672  1.0
  O  O10265  1  0.52891642  0.95439805  0.63375672  1.0
  O  O10266  1  0.61224975  0.12106472  0.63375672  1.0
  O  O10267  1  0.61224975  0.28773139  0.63375672  1.0
  O  O10268  1  0.61224975  0.45439805  0.63375672  1.0
  O  O10269  1  0.61224975  0.62106472  0.63375672  1.0
  O  O10270  1  0.61224975  0.78773139  0.63375672  1.0
  O  O10271  1  0.61224975  0.95439805  0.63375672  1.0
  O  O10272  1  0.69558309  0.12106472  0.63375672  1.0
  O  O10273  1  0.69558309  0.28773139  0.63375672  1.0
  O  O10274  1  0.69558309  0.45439805  0.63375672  1.0
  O  O10275  1  0.69558309  0.62106472  0.63375672  1.0
  O  O10276  1  0.69558309  0.78773139  0.63375672  1.0
  O  O10277  1  0.69558309  0.95439805  0.63375672  1.0
  O  O10278  1  0.77891642  0.12106472  0.63375672  1.0
  O  O10279  1  0.77891642  0.28773139  0.63375672  1.0
  O  O10280  1  0.77891642  0.45439805  0.63375672  1.0
  O  O10281  1  0.77891642  0.62106472  0.63375672  1.0
  O  O10282  1  0.77891642  0.78773139  0.63375672  1.0
  O  O10283  1  0.77891642  0.95439805  0.63375672  1.0
  O  O10284  1  0.86224975  0.12106472  0.63375672  1.0
  O  O10285  1  0.86224975  0.28773139  0.63375672  1.0
  O  O10286  1  0.86224975  0.45439805  0.63375672  1.0
  O  O10287  1  0.86224975  0.62106472  0.63375672  1.0
  O  O10288  1  0.86224975  0.78773139  0.63375672  1.0
  O  O10289  1  0.86224975  0.95439805  0.63375672  1.0
  O  O10290  1  0.94558309  0.12106472  0.63375672  1.0
  O  O10291  1  0.94558309  0.28773139  0.63375672  1.0
  O  O10292  1  0.94558309  0.45439805  0.63375672  1.0
  O  O10293  1  0.94558309  0.62106472  0.63375672  1.0
  O  O10294  1  0.94558309  0.78773139  0.63375672  1.0
  O  O10295  1  0.94558309  0.95439805  0.63375672  1.0
  O  O10296  1  0.05272594  0.13296948  0.56232815  1.0
  O  O10297  1  0.05272594  0.29963615  0.56232815  1.0
  O  O10298  1  0.05272594  0.46630281  0.56232815  1.0
  O  O10299  1  0.05272594  0.63296948  0.56232815  1.0
  O  O10300  1  0.05272594  0.79963615  0.56232815  1.0
  O  O10301  1  0.05272594  0.96630281  0.56232815  1.0
  O  O10302  1  0.13605928  0.13296948  0.56232815  1.0
  O  O10303  1  0.13605928  0.29963615  0.56232815  1.0
  O  O10304  1  0.13605928  0.46630281  0.56232815  1.0
  O  O10305  1  0.13605928  0.63296948  0.56232815  1.0
  O  O10306  1  0.13605928  0.79963615  0.56232815  1.0
  O  O10307  1  0.13605928  0.96630281  0.56232815  1.0
  O  O10308  1  0.21939261  0.13296948  0.56232815  1.0
  O  O10309  1  0.21939261  0.29963615  0.56232815  1.0
  O  O10310  1  0.21939261  0.46630281  0.56232815  1.0
  O  O10311  1  0.21939261  0.63296948  0.56232815  1.0
  O  O10312  1  0.21939261  0.79963615  0.56232815  1.0
  O  O10313  1  0.21939261  0.96630281  0.56232815  1.0
  O  O10314  1  0.30272594  0.13296948  0.56232815  1.0
  O  O10315  1  0.30272594  0.29963615  0.56232815  1.0
  O  O10316  1  0.30272594  0.46630281  0.56232815  1.0
  O  O10317  1  0.30272594  0.63296948  0.56232815  1.0
  O  O10318  1  0.30272594  0.79963615  0.56232815  1.0
  O  O10319  1  0.30272594  0.96630281  0.56232815  1.0
  O  O10320  1  0.38605928  0.13296948  0.56232815  1.0
  O  O10321  1  0.38605928  0.29963615  0.56232815  1.0
  O  O10322  1  0.38605928  0.46630281  0.56232815  1.0
  O  O10323  1  0.38605928  0.63296948  0.56232815  1.0
  O  O10324  1  0.38605928  0.79963615  0.56232815  1.0
  O  O10325  1  0.38605928  0.96630281  0.56232815  1.0
  O  O10326  1  0.46939261  0.13296948  0.56232815  1.0
  O  O10327  1  0.46939261  0.29963615  0.56232815  1.0
  O  O10328  1  0.46939261  0.46630281  0.56232815  1.0
  O  O10329  1  0.46939261  0.63296948  0.56232815  1.0
  O  O10330  1  0.46939261  0.79963615  0.56232815  1.0
  O  O10331  1  0.46939261  0.96630281  0.56232815  1.0
  O  O10332  1  0.55272594  0.13296948  0.56232815  1.0
  O  O10333  1  0.55272594  0.29963615  0.56232815  1.0
  O  O10334  1  0.55272594  0.46630281  0.56232815  1.0
  O  O10335  1  0.55272594  0.63296948  0.56232815  1.0
  O  O10336  1  0.55272594  0.79963615  0.56232815  1.0
  O  O10337  1  0.55272594  0.96630281  0.56232815  1.0
  O  O10338  1  0.63605928  0.13296948  0.56232815  1.0
  O  O10339  1  0.63605928  0.29963615  0.56232815  1.0
  O  O10340  1  0.63605928  0.46630281  0.56232815  1.0
  O  O10341  1  0.63605928  0.63296948  0.56232815  1.0
  O  O10342  1  0.63605928  0.79963615  0.56232815  1.0
  O  O10343  1  0.63605928  0.96630281  0.56232815  1.0
  O  O10344  1  0.71939261  0.13296948  0.56232815  1.0
  O  O10345  1  0.71939261  0.29963615  0.56232815  1.0
  O  O10346  1  0.71939261  0.46630281  0.56232815  1.0
  O  O10347  1  0.71939261  0.63296948  0.56232815  1.0
  O  O10348  1  0.71939261  0.79963615  0.56232815  1.0
  O  O10349  1  0.71939261  0.96630281  0.56232815  1.0
  O  O10350  1  0.80272594  0.13296948  0.56232815  1.0
  O  O10351  1  0.80272594  0.29963615  0.56232815  1.0
  O  O10352  1  0.80272594  0.46630281  0.56232815  1.0
  O  O10353  1  0.80272594  0.63296948  0.56232815  1.0
  O  O10354  1  0.80272594  0.79963615  0.56232815  1.0
  O  O10355  1  0.80272594  0.96630281  0.56232815  1.0
  O  O10356  1  0.88605928  0.13296948  0.56232815  1.0
  O  O10357  1  0.88605928  0.29963615  0.56232815  1.0
  O  O10358  1  0.88605928  0.46630281  0.56232815  1.0
  O  O10359  1  0.88605928  0.63296948  0.56232815  1.0
  O  O10360  1  0.88605928  0.79963615  0.56232815  1.0
  O  O10361  1  0.88605928  0.96630281  0.56232815  1.0
  O  O10362  1  0.96939261  0.13296948  0.56232815  1.0
  O  O10363  1  0.96939261  0.29963615  0.56232815  1.0
  O  O10364  1  0.96939261  0.46630281  0.56232815  1.0
  O  O10365  1  0.96939261  0.63296948  0.56232815  1.0
  O  O10366  1  0.96939261  0.79963615  0.56232815  1.0
  O  O10367  1  0.96939261  0.96630281  0.56232815  1.0
  O  O10368  1  0.07370576  0.02316289  0.50030066  1.0
  O  O10369  1  0.07370576  0.18982955  0.50030066  1.0
  O  O10370  1  0.07370576  0.35649622  0.50030066  1.0
  O  O10371  1  0.07370576  0.52316289  0.50030066  1.0
  O  O10372  1  0.07370576  0.68982955  0.50030066  1.0
  O  O10373  1  0.07370576  0.85649622  0.50030066  1.0
  O  O10374  1  0.15703910  0.02316289  0.50030066  1.0
  O  O10375  1  0.15703910  0.18982955  0.50030066  1.0
  O  O10376  1  0.15703910  0.35649622  0.50030066  1.0
  O  O10377  1  0.15703910  0.52316289  0.50030066  1.0
  O  O10378  1  0.15703910  0.68982955  0.50030066  1.0
  O  O10379  1  0.15703910  0.85649622  0.50030066  1.0
  O  O10380  1  0.24037243  0.02316289  0.50030066  1.0
  O  O10381  1  0.24037243  0.18982955  0.50030066  1.0
  O  O10382  1  0.24037243  0.35649622  0.50030066  1.0
  O  O10383  1  0.24037243  0.52316289  0.50030066  1.0
  O  O10384  1  0.24037243  0.68982955  0.50030066  1.0
  O  O10385  1  0.24037243  0.85649622  0.50030066  1.0
  O  O10386  1  0.32370576  0.02316289  0.50030066  1.0
  O  O10387  1  0.32370576  0.18982955  0.50030066  1.0
  O  O10388  1  0.32370576  0.35649622  0.50030066  1.0
  O  O10389  1  0.32370576  0.52316289  0.50030066  1.0
  O  O10390  1  0.32370576  0.68982955  0.50030066  1.0
  O  O10391  1  0.32370576  0.85649622  0.50030066  1.0
  O  O10392  1  0.40703910  0.02316289  0.50030066  1.0
  O  O10393  1  0.40703910  0.18982955  0.50030066  1.0
  O  O10394  1  0.40703910  0.35649622  0.50030066  1.0
  O  O10395  1  0.40703910  0.52316289  0.50030066  1.0
  O  O10396  1  0.40703910  0.68982955  0.50030066  1.0
  O  O10397  1  0.40703910  0.85649622  0.50030066  1.0
  O  O10398  1  0.49037243  0.02316289  0.50030066  1.0
  O  O10399  1  0.49037243  0.18982955  0.50030066  1.0
  O  O10400  1  0.49037243  0.35649622  0.50030066  1.0
  O  O10401  1  0.49037243  0.52316289  0.50030066  1.0
  O  O10402  1  0.49037243  0.68982955  0.50030066  1.0
  O  O10403  1  0.49037243  0.85649622  0.50030066  1.0
  O  O10404  1  0.57370576  0.02316289  0.50030066  1.0
  O  O10405  1  0.57370576  0.18982955  0.50030066  1.0
  O  O10406  1  0.57370576  0.35649622  0.50030066  1.0
  O  O10407  1  0.57370576  0.52316289  0.50030066  1.0
  O  O10408  1  0.57370576  0.68982955  0.50030066  1.0
  O  O10409  1  0.57370576  0.85649622  0.50030066  1.0
  O  O10410  1  0.65703910  0.02316289  0.50030066  1.0
  O  O10411  1  0.65703910  0.18982955  0.50030066  1.0
  O  O10412  1  0.65703910  0.35649622  0.50030066  1.0
  O  O10413  1  0.65703910  0.52316289  0.50030066  1.0
  O  O10414  1  0.65703910  0.68982955  0.50030066  1.0
  O  O10415  1  0.65703910  0.85649622  0.50030066  1.0
  O  O10416  1  0.74037243  0.02316289  0.50030066  1.0
  O  O10417  1  0.74037243  0.18982955  0.50030066  1.0
  O  O10418  1  0.74037243  0.35649622  0.50030066  1.0
  O  O10419  1  0.74037243  0.52316289  0.50030066  1.0
  O  O10420  1  0.74037243  0.68982955  0.50030066  1.0
  O  O10421  1  0.74037243  0.85649622  0.50030066  1.0
  O  O10422  1  0.82370576  0.02316289  0.50030066  1.0
  O  O10423  1  0.82370576  0.18982955  0.50030066  1.0
  O  O10424  1  0.82370576  0.35649622  0.50030066  1.0
  O  O10425  1  0.82370576  0.52316289  0.50030066  1.0
  O  O10426  1  0.82370576  0.68982955  0.50030066  1.0
  O  O10427  1  0.82370576  0.85649622  0.50030066  1.0
  O  O10428  1  0.90703910  0.02316289  0.50030066  1.0
  O  O10429  1  0.90703910  0.18982955  0.50030066  1.0
  O  O10430  1  0.90703910  0.35649622  0.50030066  1.0
  O  O10431  1  0.90703910  0.52316289  0.50030066  1.0
  O  O10432  1  0.90703910  0.68982955  0.50030066  1.0
  O  O10433  1  0.90703910  0.85649622  0.50030066  1.0
  O  O10434  1  0.99037243  0.02316289  0.50030066  1.0
  O  O10435  1  0.99037243  0.18982955  0.50030066  1.0
  O  O10436  1  0.99037243  0.35649622  0.50030066  1.0
  O  O10437  1  0.99037243  0.52316289  0.50030066  1.0
  O  O10438  1  0.99037243  0.68982955  0.50030066  1.0
  O  O10439  1  0.99037243  0.85649622  0.50030066  1.0
  O  O10440  1  0.04989624  0.01125812  0.57172924  1.0
  O  O10441  1  0.04989624  0.17792479  0.57172924  1.0
  O  O10442  1  0.04989624  0.34459146  0.57172924  1.0
  O  O10443  1  0.04989624  0.51125812  0.57172924  1.0
  O  O10444  1  0.04989624  0.67792479  0.57172924  1.0
  O  O10445  1  0.04989624  0.84459146  0.57172924  1.0
  O  O10446  1  0.13322957  0.01125812  0.57172924  1.0
  O  O10447  1  0.13322957  0.17792479  0.57172924  1.0
  O  O10448  1  0.13322957  0.34459146  0.57172924  1.0
  O  O10449  1  0.13322957  0.51125812  0.57172924  1.0
  O  O10450  1  0.13322957  0.67792479  0.57172924  1.0
  O  O10451  1  0.13322957  0.84459146  0.57172924  1.0
  O  O10452  1  0.21656291  0.01125812  0.57172924  1.0
  O  O10453  1  0.21656291  0.17792479  0.57172924  1.0
  O  O10454  1  0.21656291  0.34459146  0.57172924  1.0
  O  O10455  1  0.21656291  0.51125812  0.57172924  1.0
  O  O10456  1  0.21656291  0.67792479  0.57172924  1.0
  O  O10457  1  0.21656291  0.84459146  0.57172924  1.0
  O  O10458  1  0.29989624  0.01125812  0.57172924  1.0
  O  O10459  1  0.29989624  0.17792479  0.57172924  1.0
  O  O10460  1  0.29989624  0.34459146  0.57172924  1.0
  O  O10461  1  0.29989624  0.51125812  0.57172924  1.0
  O  O10462  1  0.29989624  0.67792479  0.57172924  1.0
  O  O10463  1  0.29989624  0.84459146  0.57172924  1.0
  O  O10464  1  0.38322957  0.01125812  0.57172924  1.0
  O  O10465  1  0.38322957  0.17792479  0.57172924  1.0
  O  O10466  1  0.38322957  0.34459146  0.57172924  1.0
  O  O10467  1  0.38322957  0.51125812  0.57172924  1.0
  O  O10468  1  0.38322957  0.67792479  0.57172924  1.0
  O  O10469  1  0.38322957  0.84459146  0.57172924  1.0
  O  O10470  1  0.46656291  0.01125812  0.57172924  1.0
  O  O10471  1  0.46656291  0.17792479  0.57172924  1.0
  O  O10472  1  0.46656291  0.34459146  0.57172924  1.0
  O  O10473  1  0.46656291  0.51125812  0.57172924  1.0
  O  O10474  1  0.46656291  0.67792479  0.57172924  1.0
  O  O10475  1  0.46656291  0.84459146  0.57172924  1.0
  O  O10476  1  0.54989624  0.01125812  0.57172924  1.0
  O  O10477  1  0.54989624  0.17792479  0.57172924  1.0
  O  O10478  1  0.54989624  0.34459146  0.57172924  1.0
  O  O10479  1  0.54989624  0.51125812  0.57172924  1.0
  O  O10480  1  0.54989624  0.67792479  0.57172924  1.0
  O  O10481  1  0.54989624  0.84459146  0.57172924  1.0
  O  O10482  1  0.63322957  0.01125812  0.57172924  1.0
  O  O10483  1  0.63322957  0.17792479  0.57172924  1.0
  O  O10484  1  0.63322957  0.34459146  0.57172924  1.0
  O  O10485  1  0.63322957  0.51125812  0.57172924  1.0
  O  O10486  1  0.63322957  0.67792479  0.57172924  1.0
  O  O10487  1  0.63322957  0.84459146  0.57172924  1.0
  O  O10488  1  0.71656291  0.01125812  0.57172924  1.0
  O  O10489  1  0.71656291  0.17792479  0.57172924  1.0
  O  O10490  1  0.71656291  0.34459146  0.57172924  1.0
  O  O10491  1  0.71656291  0.51125812  0.57172924  1.0
  O  O10492  1  0.71656291  0.67792479  0.57172924  1.0
  O  O10493  1  0.71656291  0.84459146  0.57172924  1.0
  O  O10494  1  0.79989624  0.01125812  0.57172924  1.0
  O  O10495  1  0.79989624  0.17792479  0.57172924  1.0
  O  O10496  1  0.79989624  0.34459146  0.57172924  1.0
  O  O10497  1  0.79989624  0.51125812  0.57172924  1.0
  O  O10498  1  0.79989624  0.67792479  0.57172924  1.0
  O  O10499  1  0.79989624  0.84459146  0.57172924  1.0
  O  O10500  1  0.88322957  0.01125812  0.57172924  1.0
  O  O10501  1  0.88322957  0.17792479  0.57172924  1.0
  O  O10502  1  0.88322957  0.34459146  0.57172924  1.0
  O  O10503  1  0.88322957  0.51125812  0.57172924  1.0
  O  O10504  1  0.88322957  0.67792479  0.57172924  1.0
  O  O10505  1  0.88322957  0.84459146  0.57172924  1.0
  O  O10506  1  0.96656291  0.01125812  0.57172924  1.0
  O  O10507  1  0.96656291  0.17792479  0.57172924  1.0
  O  O10508  1  0.96656291  0.34459146  0.57172924  1.0
  O  O10509  1  0.96656291  0.51125812  0.57172924  1.0
  O  O10510  1  0.96656291  0.67792479  0.57172924  1.0
  O  O10511  1  0.96656291  0.84459146  0.57172924  1.0
  O  O10512  1  0.07116215  0.06973216  0.51232680  1.0
  O  O10513  1  0.07116215  0.23639883  0.51232680  1.0
  O  O10514  1  0.07116215  0.40306549  0.51232680  1.0
  O  O10515  1  0.07116215  0.56973216  0.51232680  1.0
  O  O10516  1  0.07116215  0.73639883  0.51232680  1.0
  O  O10517  1  0.07116215  0.90306549  0.51232680  1.0
  O  O10518  1  0.15449549  0.06973216  0.51232680  1.0
  O  O10519  1  0.15449549  0.23639883  0.51232680  1.0
  O  O10520  1  0.15449549  0.40306549  0.51232680  1.0
  O  O10521  1  0.15449549  0.56973216  0.51232680  1.0
  O  O10522  1  0.15449549  0.73639883  0.51232680  1.0
  O  O10523  1  0.15449549  0.90306549  0.51232680  1.0
  O  O10524  1  0.23782882  0.06973216  0.51232680  1.0
  O  O10525  1  0.23782882  0.23639883  0.51232680  1.0
  O  O10526  1  0.23782882  0.40306549  0.51232680  1.0
  O  O10527  1  0.23782882  0.56973216  0.51232680  1.0
  O  O10528  1  0.23782882  0.73639883  0.51232680  1.0
  O  O10529  1  0.23782882  0.90306549  0.51232680  1.0
  O  O10530  1  0.32116215  0.06973216  0.51232680  1.0
  O  O10531  1  0.32116215  0.23639883  0.51232680  1.0
  O  O10532  1  0.32116215  0.40306549  0.51232680  1.0
  O  O10533  1  0.32116215  0.56973216  0.51232680  1.0
  O  O10534  1  0.32116215  0.73639883  0.51232680  1.0
  O  O10535  1  0.32116215  0.90306549  0.51232680  1.0
  O  O10536  1  0.40449549  0.06973216  0.51232680  1.0
  O  O10537  1  0.40449549  0.23639883  0.51232680  1.0
  O  O10538  1  0.40449549  0.40306549  0.51232680  1.0
  O  O10539  1  0.40449549  0.56973216  0.51232680  1.0
  O  O10540  1  0.40449549  0.73639883  0.51232680  1.0
  O  O10541  1  0.40449549  0.90306549  0.51232680  1.0
  O  O10542  1  0.48782882  0.06973216  0.51232680  1.0
  O  O10543  1  0.48782882  0.23639883  0.51232680  1.0
  O  O10544  1  0.48782882  0.40306549  0.51232680  1.0
  O  O10545  1  0.48782882  0.56973216  0.51232680  1.0
  O  O10546  1  0.48782882  0.73639883  0.51232680  1.0
  O  O10547  1  0.48782882  0.90306549  0.51232680  1.0
  O  O10548  1  0.57116215  0.06973216  0.51232680  1.0
  O  O10549  1  0.57116215  0.23639883  0.51232680  1.0
  O  O10550  1  0.57116215  0.40306549  0.51232680  1.0
  O  O10551  1  0.57116215  0.56973216  0.51232680  1.0
  O  O10552  1  0.57116215  0.73639883  0.51232680  1.0
  O  O10553  1  0.57116215  0.90306549  0.51232680  1.0
  O  O10554  1  0.65449549  0.06973216  0.51232680  1.0
  O  O10555  1  0.65449549  0.23639883  0.51232680  1.0
  O  O10556  1  0.65449549  0.40306549  0.51232680  1.0
  O  O10557  1  0.65449549  0.56973216  0.51232680  1.0
  O  O10558  1  0.65449549  0.73639883  0.51232680  1.0
  O  O10559  1  0.65449549  0.90306549  0.51232680  1.0
  O  O10560  1  0.73782882  0.06973216  0.51232680  1.0
  O  O10561  1  0.73782882  0.23639883  0.51232680  1.0
  O  O10562  1  0.73782882  0.40306549  0.51232680  1.0
  O  O10563  1  0.73782882  0.56973216  0.51232680  1.0
  O  O10564  1  0.73782882  0.73639883  0.51232680  1.0
  O  O10565  1  0.73782882  0.90306549  0.51232680  1.0
  O  O10566  1  0.82116215  0.06973216  0.51232680  1.0
  O  O10567  1  0.82116215  0.23639883  0.51232680  1.0
  O  O10568  1  0.82116215  0.40306549  0.51232680  1.0
  O  O10569  1  0.82116215  0.56973216  0.51232680  1.0
  O  O10570  1  0.82116215  0.73639883  0.51232680  1.0
  O  O10571  1  0.82116215  0.90306549  0.51232680  1.0
  O  O10572  1  0.90449549  0.06973216  0.51232680  1.0
  O  O10573  1  0.90449549  0.23639883  0.51232680  1.0
  O  O10574  1  0.90449549  0.40306549  0.51232680  1.0
  O  O10575  1  0.90449549  0.56973216  0.51232680  1.0
  O  O10576  1  0.90449549  0.73639883  0.51232680  1.0
  O  O10577  1  0.90449549  0.90306549  0.51232680  1.0
  O  O10578  1  0.98782882  0.06973216  0.51232680  1.0
  O  O10579  1  0.98782882  0.23639883  0.51232680  1.0
  O  O10580  1  0.98782882  0.40306549  0.51232680  1.0
  O  O10581  1  0.98782882  0.56973216  0.51232680  1.0
  O  O10582  1  0.98782882  0.73639883  0.51232680  1.0
  O  O10583  1  0.98782882  0.90306549  0.51232680  1.0
  O  O10584  1  0.04735263  0.05782740  0.58375537  1.0
  O  O10585  1  0.04735263  0.22449406  0.58375537  1.0
  O  O10586  1  0.04735263  0.39116073  0.58375537  1.0
  O  O10587  1  0.04735263  0.55782740  0.58375537  1.0
  O  O10588  1  0.04735263  0.72449406  0.58375537  1.0
  O  O10589  1  0.04735263  0.89116073  0.58375537  1.0
  O  O10590  1  0.13068596  0.05782740  0.58375537  1.0
  O  O10591  1  0.13068596  0.22449406  0.58375537  1.0
  O  O10592  1  0.13068596  0.39116073  0.58375537  1.0
  O  O10593  1  0.13068596  0.55782740  0.58375537  1.0
  O  O10594  1  0.13068596  0.72449406  0.58375537  1.0
  O  O10595  1  0.13068596  0.89116073  0.58375537  1.0
  O  O10596  1  0.21401930  0.05782740  0.58375537  1.0
  O  O10597  1  0.21401930  0.22449406  0.58375537  1.0
  O  O10598  1  0.21401930  0.39116073  0.58375537  1.0
  O  O10599  1  0.21401930  0.55782740  0.58375537  1.0
  O  O10600  1  0.21401930  0.72449406  0.58375537  1.0
  O  O10601  1  0.21401930  0.89116073  0.58375537  1.0
  O  O10602  1  0.29735263  0.05782740  0.58375537  1.0
  O  O10603  1  0.29735263  0.22449406  0.58375537  1.0
  O  O10604  1  0.29735263  0.39116073  0.58375537  1.0
  O  O10605  1  0.29735263  0.55782740  0.58375537  1.0
  O  O10606  1  0.29735263  0.72449406  0.58375537  1.0
  O  O10607  1  0.29735263  0.89116073  0.58375537  1.0
  O  O10608  1  0.38068596  0.05782740  0.58375537  1.0
  O  O10609  1  0.38068596  0.22449406  0.58375537  1.0
  O  O10610  1  0.38068596  0.39116073  0.58375537  1.0
  O  O10611  1  0.38068596  0.55782740  0.58375537  1.0
  O  O10612  1  0.38068596  0.72449406  0.58375537  1.0
  O  O10613  1  0.38068596  0.89116073  0.58375537  1.0
  O  O10614  1  0.46401930  0.05782740  0.58375537  1.0
  O  O10615  1  0.46401930  0.22449406  0.58375537  1.0
  O  O10616  1  0.46401930  0.39116073  0.58375537  1.0
  O  O10617  1  0.46401930  0.55782740  0.58375537  1.0
  O  O10618  1  0.46401930  0.72449406  0.58375537  1.0
  O  O10619  1  0.46401930  0.89116073  0.58375537  1.0
  O  O10620  1  0.54735263  0.05782740  0.58375537  1.0
  O  O10621  1  0.54735263  0.22449406  0.58375537  1.0
  O  O10622  1  0.54735263  0.39116073  0.58375537  1.0
  O  O10623  1  0.54735263  0.55782740  0.58375537  1.0
  O  O10624  1  0.54735263  0.72449406  0.58375537  1.0
  O  O10625  1  0.54735263  0.89116073  0.58375537  1.0
  O  O10626  1  0.63068596  0.05782740  0.58375537  1.0
  O  O10627  1  0.63068596  0.22449406  0.58375537  1.0
  O  O10628  1  0.63068596  0.39116073  0.58375537  1.0
  O  O10629  1  0.63068596  0.55782740  0.58375537  1.0
  O  O10630  1  0.63068596  0.72449406  0.58375537  1.0
  O  O10631  1  0.63068596  0.89116073  0.58375537  1.0
  O  O10632  1  0.71401930  0.05782740  0.58375537  1.0
  O  O10633  1  0.71401930  0.22449406  0.58375537  1.0
  O  O10634  1  0.71401930  0.39116073  0.58375537  1.0
  O  O10635  1  0.71401930  0.55782740  0.58375537  1.0
  O  O10636  1  0.71401930  0.72449406  0.58375537  1.0
  O  O10637  1  0.71401930  0.89116073  0.58375537  1.0
  O  O10638  1  0.79735263  0.05782740  0.58375537  1.0
  O  O10639  1  0.79735263  0.22449406  0.58375537  1.0
  O  O10640  1  0.79735263  0.39116073  0.58375537  1.0
  O  O10641  1  0.79735263  0.55782740  0.58375537  1.0
  O  O10642  1  0.79735263  0.72449406  0.58375537  1.0
  O  O10643  1  0.79735263  0.89116073  0.58375537  1.0
  O  O10644  1  0.88068596  0.05782740  0.58375537  1.0
  O  O10645  1  0.88068596  0.22449406  0.58375537  1.0
  O  O10646  1  0.88068596  0.39116073  0.58375537  1.0
  O  O10647  1  0.88068596  0.55782740  0.58375537  1.0
  O  O10648  1  0.88068596  0.72449406  0.58375537  1.0
  O  O10649  1  0.88068596  0.89116073  0.58375537  1.0
  O  O10650  1  0.96401930  0.05782740  0.58375537  1.0
  O  O10651  1  0.96401930  0.22449406  0.58375537  1.0
  O  O10652  1  0.96401930  0.39116073  0.58375537  1.0
  O  O10653  1  0.96401930  0.55782740  0.58375537  1.0
  O  O10654  1  0.96401930  0.72449406  0.58375537  1.0
  O  O10655  1  0.96401930  0.89116073  0.58375537  1.0
  O  O10656  1  0.06942113  0.14372323  0.63874604  1.0
  O  O10657  1  0.06942113  0.31038990  0.63874604  1.0
  O  O10658  1  0.06942113  0.47705656  0.63874604  1.0
  O  O10659  1  0.06942113  0.64372323  0.63874604  1.0
  O  O10660  1  0.06942113  0.81038990  0.63874604  1.0
  O  O10661  1  0.06942113  0.97705656  0.63874604  1.0
  O  O10662  1  0.15275447  0.14372323  0.63874604  1.0
  O  O10663  1  0.15275447  0.31038990  0.63874604  1.0
  O  O10664  1  0.15275447  0.47705656  0.63874604  1.0
  O  O10665  1  0.15275447  0.64372323  0.63874604  1.0
  O  O10666  1  0.15275447  0.81038990  0.63874604  1.0
  O  O10667  1  0.15275447  0.97705656  0.63874604  1.0
  O  O10668  1  0.23608780  0.14372323  0.63874604  1.0
  O  O10669  1  0.23608780  0.31038990  0.63874604  1.0
  O  O10670  1  0.23608780  0.47705656  0.63874604  1.0
  O  O10671  1  0.23608780  0.64372323  0.63874604  1.0
  O  O10672  1  0.23608780  0.81038990  0.63874604  1.0
  O  O10673  1  0.23608780  0.97705656  0.63874604  1.0
  O  O10674  1  0.31942113  0.14372323  0.63874604  1.0
  O  O10675  1  0.31942113  0.31038990  0.63874604  1.0
  O  O10676  1  0.31942113  0.47705656  0.63874604  1.0
  O  O10677  1  0.31942113  0.64372323  0.63874604  1.0
  O  O10678  1  0.31942113  0.81038990  0.63874604  1.0
  O  O10679  1  0.31942113  0.97705656  0.63874604  1.0
  O  O10680  1  0.40275447  0.14372323  0.63874604  1.0
  O  O10681  1  0.40275447  0.31038990  0.63874604  1.0
  O  O10682  1  0.40275447  0.47705656  0.63874604  1.0
  O  O10683  1  0.40275447  0.64372323  0.63874604  1.0
  O  O10684  1  0.40275447  0.81038990  0.63874604  1.0
  O  O10685  1  0.40275447  0.97705656  0.63874604  1.0
  O  O10686  1  0.48608780  0.14372323  0.63874604  1.0
  O  O10687  1  0.48608780  0.31038990  0.63874604  1.0
  O  O10688  1  0.48608780  0.47705656  0.63874604  1.0
  O  O10689  1  0.48608780  0.64372323  0.63874604  1.0
  O  O10690  1  0.48608780  0.81038990  0.63874604  1.0
  O  O10691  1  0.48608780  0.97705656  0.63874604  1.0
  O  O10692  1  0.56942113  0.14372323  0.63874604  1.0
  O  O10693  1  0.56942113  0.31038990  0.63874604  1.0
  O  O10694  1  0.56942113  0.47705656  0.63874604  1.0
  O  O10695  1  0.56942113  0.64372323  0.63874604  1.0
  O  O10696  1  0.56942113  0.81038990  0.63874604  1.0
  O  O10697  1  0.56942113  0.97705656  0.63874604  1.0
  O  O10698  1  0.65275447  0.14372323  0.63874604  1.0
  O  O10699  1  0.65275447  0.31038990  0.63874604  1.0
  O  O10700  1  0.65275447  0.47705656  0.63874604  1.0
  O  O10701  1  0.65275447  0.64372323  0.63874604  1.0
  O  O10702  1  0.65275447  0.81038990  0.63874604  1.0
  O  O10703  1  0.65275447  0.97705656  0.63874604  1.0
  O  O10704  1  0.73608780  0.14372323  0.63874604  1.0
  O  O10705  1  0.73608780  0.31038990  0.63874604  1.0
  O  O10706  1  0.73608780  0.47705656  0.63874604  1.0
  O  O10707  1  0.73608780  0.64372323  0.63874604  1.0
  O  O10708  1  0.73608780  0.81038990  0.63874604  1.0
  O  O10709  1  0.73608780  0.97705656  0.63874604  1.0
  O  O10710  1  0.81942113  0.14372323  0.63874604  1.0
  O  O10711  1  0.81942113  0.31038990  0.63874604  1.0
  O  O10712  1  0.81942113  0.47705656  0.63874604  1.0
  O  O10713  1  0.81942113  0.64372323  0.63874604  1.0
  O  O10714  1  0.81942113  0.81038990  0.63874604  1.0
  O  O10715  1  0.81942113  0.97705656  0.63874604  1.0
  O  O10716  1  0.90275447  0.14372323  0.63874604  1.0
  O  O10717  1  0.90275447  0.31038990  0.63874604  1.0
  O  O10718  1  0.90275447  0.47705656  0.63874604  1.0
  O  O10719  1  0.90275447  0.64372323  0.63874604  1.0
  O  O10720  1  0.90275447  0.81038990  0.63874604  1.0
  O  O10721  1  0.90275447  0.97705656  0.63874604  1.0
  O  O10722  1  0.98608780  0.14372323  0.63874604  1.0
  O  O10723  1  0.98608780  0.31038990  0.63874604  1.0
  O  O10724  1  0.98608780  0.47705656  0.63874604  1.0
  O  O10725  1  0.98608780  0.64372323  0.63874604  1.0
  O  O10726  1  0.98608780  0.81038990  0.63874604  1.0
  O  O10727  1  0.98608780  0.97705656  0.63874604  1.0
  O  O10728  1  0.00989732  0.15562799  0.56731747  1.0
  O  O10729  1  0.00989732  0.32229466  0.56731747  1.0
  O  O10730  1  0.00989732  0.48896133  0.56731747  1.0
  O  O10731  1  0.00989732  0.65562799  0.56731747  1.0
  O  O10732  1  0.00989732  0.82229466  0.56731747  1.0
  O  O10733  1  0.00989732  0.98896133  0.56731747  1.0
  O  O10734  1  0.09323066  0.15562799  0.56731747  1.0
  O  O10735  1  0.09323066  0.32229466  0.56731747  1.0
  O  O10736  1  0.09323066  0.48896133  0.56731747  1.0
  O  O10737  1  0.09323066  0.65562799  0.56731747  1.0
  O  O10738  1  0.09323066  0.82229466  0.56731747  1.0
  O  O10739  1  0.09323066  0.98896133  0.56731747  1.0
  O  O10740  1  0.17656399  0.15562799  0.56731747  1.0
  O  O10741  1  0.17656399  0.32229466  0.56731747  1.0
  O  O10742  1  0.17656399  0.48896133  0.56731747  1.0
  O  O10743  1  0.17656399  0.65562799  0.56731747  1.0
  O  O10744  1  0.17656399  0.82229466  0.56731747  1.0
  O  O10745  1  0.17656399  0.98896133  0.56731747  1.0
  O  O10746  1  0.25989732  0.15562799  0.56731747  1.0
  O  O10747  1  0.25989732  0.32229466  0.56731747  1.0
  O  O10748  1  0.25989732  0.48896133  0.56731747  1.0
  O  O10749  1  0.25989732  0.65562799  0.56731747  1.0
  O  O10750  1  0.25989732  0.82229466  0.56731747  1.0
  O  O10751  1  0.25989732  0.98896133  0.56731747  1.0
  O  O10752  1  0.34323066  0.15562799  0.56731747  1.0
  O  O10753  1  0.34323066  0.32229466  0.56731747  1.0
  O  O10754  1  0.34323066  0.48896133  0.56731747  1.0
  O  O10755  1  0.34323066  0.65562799  0.56731747  1.0
  O  O10756  1  0.34323066  0.82229466  0.56731747  1.0
  O  O10757  1  0.34323066  0.98896133  0.56731747  1.0
  O  O10758  1  0.42656399  0.15562799  0.56731747  1.0
  O  O10759  1  0.42656399  0.32229466  0.56731747  1.0
  O  O10760  1  0.42656399  0.48896133  0.56731747  1.0
  O  O10761  1  0.42656399  0.65562799  0.56731747  1.0
  O  O10762  1  0.42656399  0.82229466  0.56731747  1.0
  O  O10763  1  0.42656399  0.98896133  0.56731747  1.0
  O  O10764  1  0.50989732  0.15562799  0.56731747  1.0
  O  O10765  1  0.50989732  0.32229466  0.56731747  1.0
  O  O10766  1  0.50989732  0.48896133  0.56731747  1.0
  O  O10767  1  0.50989732  0.65562799  0.56731747  1.0
  O  O10768  1  0.50989732  0.82229466  0.56731747  1.0
  O  O10769  1  0.50989732  0.98896133  0.56731747  1.0
  O  O10770  1  0.59323066  0.15562799  0.56731747  1.0
  O  O10771  1  0.59323066  0.32229466  0.56731747  1.0
  O  O10772  1  0.59323066  0.48896133  0.56731747  1.0
  O  O10773  1  0.59323066  0.65562799  0.56731747  1.0
  O  O10774  1  0.59323066  0.82229466  0.56731747  1.0
  O  O10775  1  0.59323066  0.98896133  0.56731747  1.0
  O  O10776  1  0.67656399  0.15562799  0.56731747  1.0
  O  O10777  1  0.67656399  0.32229466  0.56731747  1.0
  O  O10778  1  0.67656399  0.48896133  0.56731747  1.0
  O  O10779  1  0.67656399  0.65562799  0.56731747  1.0
  O  O10780  1  0.67656399  0.82229466  0.56731747  1.0
  O  O10781  1  0.67656399  0.98896133  0.56731747  1.0
  O  O10782  1  0.75989732  0.15562799  0.56731747  1.0
  O  O10783  1  0.75989732  0.32229466  0.56731747  1.0
  O  O10784  1  0.75989732  0.48896133  0.56731747  1.0
  O  O10785  1  0.75989732  0.65562799  0.56731747  1.0
  O  O10786  1  0.75989732  0.82229466  0.56731747  1.0
  O  O10787  1  0.75989732  0.98896133  0.56731747  1.0
  O  O10788  1  0.84323066  0.15562799  0.56731747  1.0
  O  O10789  1  0.84323066  0.32229466  0.56731747  1.0
  O  O10790  1  0.84323066  0.48896133  0.56731747  1.0
  O  O10791  1  0.84323066  0.65562799  0.56731747  1.0
  O  O10792  1  0.84323066  0.82229466  0.56731747  1.0
  O  O10793  1  0.84323066  0.98896133  0.56731747  1.0
  O  O10794  1  0.92656399  0.15562799  0.56731747  1.0
  O  O10795  1  0.92656399  0.32229466  0.56731747  1.0
  O  O10796  1  0.92656399  0.48896133  0.56731747  1.0
  O  O10797  1  0.92656399  0.65562799  0.56731747  1.0
  O  O10798  1  0.92656399  0.82229466  0.56731747  1.0
  O  O10799  1  0.92656399  0.98896133  0.56731747  1.0
  O  O10800  1  0.03320601  0.07522194  0.62439959  1.0
  O  O10801  1  0.03320601  0.24188861  0.62439959  1.0
  O  O10802  1  0.03320601  0.40855528  0.62439959  1.0
  O  O10803  1  0.03320601  0.57522194  0.62439959  1.0
  O  O10804  1  0.03320601  0.74188861  0.62439959  1.0
  O  O10805  1  0.03320601  0.90855528  0.62439959  1.0
  O  O10806  1  0.11653934  0.07522194  0.62439959  1.0
  O  O10807  1  0.11653934  0.24188861  0.62439959  1.0
  O  O10808  1  0.11653934  0.40855528  0.62439959  1.0
  O  O10809  1  0.11653934  0.57522194  0.62439959  1.0
  O  O10810  1  0.11653934  0.74188861  0.62439959  1.0
  O  O10811  1  0.11653934  0.90855528  0.62439959  1.0
  O  O10812  1  0.19987267  0.07522194  0.62439959  1.0
  O  O10813  1  0.19987267  0.24188861  0.62439959  1.0
  O  O10814  1  0.19987267  0.40855528  0.62439959  1.0
  O  O10815  1  0.19987267  0.57522194  0.62439959  1.0
  O  O10816  1  0.19987267  0.74188861  0.62439959  1.0
  O  O10817  1  0.19987267  0.90855528  0.62439959  1.0
  O  O10818  1  0.28320601  0.07522194  0.62439959  1.0
  O  O10819  1  0.28320601  0.24188861  0.62439959  1.0
  O  O10820  1  0.28320601  0.40855528  0.62439959  1.0
  O  O10821  1  0.28320601  0.57522194  0.62439959  1.0
  O  O10822  1  0.28320601  0.74188861  0.62439959  1.0
  O  O10823  1  0.28320601  0.90855528  0.62439959  1.0
  O  O10824  1  0.36653934  0.07522194  0.62439959  1.0
  O  O10825  1  0.36653934  0.24188861  0.62439959  1.0
  O  O10826  1  0.36653934  0.40855528  0.62439959  1.0
  O  O10827  1  0.36653934  0.57522194  0.62439959  1.0
  O  O10828  1  0.36653934  0.74188861  0.62439959  1.0
  O  O10829  1  0.36653934  0.90855528  0.62439959  1.0
  O  O10830  1  0.44987267  0.07522194  0.62439959  1.0
  O  O10831  1  0.44987267  0.24188861  0.62439959  1.0
  O  O10832  1  0.44987267  0.40855528  0.62439959  1.0
  O  O10833  1  0.44987267  0.57522194  0.62439959  1.0
  O  O10834  1  0.44987267  0.74188861  0.62439959  1.0
  O  O10835  1  0.44987267  0.90855528  0.62439959  1.0
  O  O10836  1  0.53320601  0.07522194  0.62439959  1.0
  O  O10837  1  0.53320601  0.24188861  0.62439959  1.0
  O  O10838  1  0.53320601  0.40855528  0.62439959  1.0
  O  O10839  1  0.53320601  0.57522194  0.62439959  1.0
  O  O10840  1  0.53320601  0.74188861  0.62439959  1.0
  O  O10841  1  0.53320601  0.90855528  0.62439959  1.0
  O  O10842  1  0.61653934  0.07522194  0.62439959  1.0
  O  O10843  1  0.61653934  0.24188861  0.62439959  1.0
  O  O10844  1  0.61653934  0.40855528  0.62439959  1.0
  O  O10845  1  0.61653934  0.57522194  0.62439959  1.0
  O  O10846  1  0.61653934  0.74188861  0.62439959  1.0
  O  O10847  1  0.61653934  0.90855528  0.62439959  1.0
  O  O10848  1  0.69987267  0.07522194  0.62439959  1.0
  O  O10849  1  0.69987267  0.24188861  0.62439959  1.0
  O  O10850  1  0.69987267  0.40855528  0.62439959  1.0
  O  O10851  1  0.69987267  0.57522194  0.62439959  1.0
  O  O10852  1  0.69987267  0.74188861  0.62439959  1.0
  O  O10853  1  0.69987267  0.90855528  0.62439959  1.0
  O  O10854  1  0.78320601  0.07522194  0.62439959  1.0
  O  O10855  1  0.78320601  0.24188861  0.62439959  1.0
  O  O10856  1  0.78320601  0.40855528  0.62439959  1.0
  O  O10857  1  0.78320601  0.57522194  0.62439959  1.0
  O  O10858  1  0.78320601  0.74188861  0.62439959  1.0
  O  O10859  1  0.78320601  0.90855528  0.62439959  1.0
  O  O10860  1  0.86653934  0.07522194  0.62439959  1.0
  O  O10861  1  0.86653934  0.24188861  0.62439959  1.0
  O  O10862  1  0.86653934  0.40855528  0.62439959  1.0
  O  O10863  1  0.86653934  0.57522194  0.62439959  1.0
  O  O10864  1  0.86653934  0.74188861  0.62439959  1.0
  O  O10865  1  0.86653934  0.90855528  0.62439959  1.0
  O  O10866  1  0.94987267  0.07522194  0.62439959  1.0
  O  O10867  1  0.94987267  0.24188861  0.62439959  1.0
  O  O10868  1  0.94987267  0.40855528  0.62439959  1.0
  O  O10869  1  0.94987267  0.57522194  0.62439959  1.0
  O  O10870  1  0.94987267  0.74188861  0.62439959  1.0
  O  O10871  1  0.94987267  0.90855528  0.62439959  1.0
  O  O10872  1  0.05701553  0.08712671  0.55297101  1.0
  O  O10873  1  0.05701553  0.25379337  0.55297101  1.0
  O  O10874  1  0.05701553  0.42046004  0.55297101  1.0
  O  O10875  1  0.05701553  0.58712671  0.55297101  1.0
  O  O10876  1  0.05701553  0.75379337  0.55297101  1.0
  O  O10877  1  0.05701553  0.92046004  0.55297101  1.0
  O  O10878  1  0.14034886  0.08712671  0.55297101  1.0
  O  O10879  1  0.14034886  0.25379337  0.55297101  1.0
  O  O10880  1  0.14034886  0.42046004  0.55297101  1.0
  O  O10881  1  0.14034886  0.58712671  0.55297101  1.0
  O  O10882  1  0.14034886  0.75379337  0.55297101  1.0
  O  O10883  1  0.14034886  0.92046004  0.55297101  1.0
  O  O10884  1  0.22368220  0.08712671  0.55297101  1.0
  O  O10885  1  0.22368220  0.25379337  0.55297101  1.0
  O  O10886  1  0.22368220  0.42046004  0.55297101  1.0
  O  O10887  1  0.22368220  0.58712671  0.55297101  1.0
  O  O10888  1  0.22368220  0.75379337  0.55297101  1.0
  O  O10889  1  0.22368220  0.92046004  0.55297101  1.0
  O  O10890  1  0.30701553  0.08712671  0.55297101  1.0
  O  O10891  1  0.30701553  0.25379337  0.55297101  1.0
  O  O10892  1  0.30701553  0.42046004  0.55297101  1.0
  O  O10893  1  0.30701553  0.58712671  0.55297101  1.0
  O  O10894  1  0.30701553  0.75379337  0.55297101  1.0
  O  O10895  1  0.30701553  0.92046004  0.55297101  1.0
  O  O10896  1  0.39034886  0.08712671  0.55297101  1.0
  O  O10897  1  0.39034886  0.25379337  0.55297101  1.0
  O  O10898  1  0.39034886  0.42046004  0.55297101  1.0
  O  O10899  1  0.39034886  0.58712671  0.55297101  1.0
  O  O10900  1  0.39034886  0.75379337  0.55297101  1.0
  O  O10901  1  0.39034886  0.92046004  0.55297101  1.0
  O  O10902  1  0.47368220  0.08712671  0.55297101  1.0
  O  O10903  1  0.47368220  0.25379337  0.55297101  1.0
  O  O10904  1  0.47368220  0.42046004  0.55297101  1.0
  O  O10905  1  0.47368220  0.58712671  0.55297101  1.0
  O  O10906  1  0.47368220  0.75379337  0.55297101  1.0
  O  O10907  1  0.47368220  0.92046004  0.55297101  1.0
  O  O10908  1  0.55701553  0.08712671  0.55297101  1.0
  O  O10909  1  0.55701553  0.25379337  0.55297101  1.0
  O  O10910  1  0.55701553  0.42046004  0.55297101  1.0
  O  O10911  1  0.55701553  0.58712671  0.55297101  1.0
  O  O10912  1  0.55701553  0.75379337  0.55297101  1.0
  O  O10913  1  0.55701553  0.92046004  0.55297101  1.0
  O  O10914  1  0.64034886  0.08712671  0.55297101  1.0
  O  O10915  1  0.64034886  0.25379337  0.55297101  1.0
  O  O10916  1  0.64034886  0.42046004  0.55297101  1.0
  O  O10917  1  0.64034886  0.58712671  0.55297101  1.0
  O  O10918  1  0.64034886  0.75379337  0.55297101  1.0
  O  O10919  1  0.64034886  0.92046004  0.55297101  1.0
  O  O10920  1  0.72368220  0.08712671  0.55297101  1.0
  O  O10921  1  0.72368220  0.25379337  0.55297101  1.0
  O  O10922  1  0.72368220  0.42046004  0.55297101  1.0
  O  O10923  1  0.72368220  0.58712671  0.55297101  1.0
  O  O10924  1  0.72368220  0.75379337  0.55297101  1.0
  O  O10925  1  0.72368220  0.92046004  0.55297101  1.0
  O  O10926  1  0.80701553  0.08712671  0.55297101  1.0
  O  O10927  1  0.80701553  0.25379337  0.55297101  1.0
  O  O10928  1  0.80701553  0.42046004  0.55297101  1.0
  O  O10929  1  0.80701553  0.58712671  0.55297101  1.0
  O  O10930  1  0.80701553  0.75379337  0.55297101  1.0
  O  O10931  1  0.80701553  0.92046004  0.55297101  1.0
  O  O10932  1  0.89034886  0.08712671  0.55297101  1.0
  O  O10933  1  0.89034886  0.25379337  0.55297101  1.0
  O  O10934  1  0.89034886  0.42046004  0.55297101  1.0
  O  O10935  1  0.89034886  0.58712671  0.55297101  1.0
  O  O10936  1  0.89034886  0.75379337  0.55297101  1.0
  O  O10937  1  0.89034886  0.92046004  0.55297101  1.0
  O  O10938  1  0.97368220  0.08712671  0.55297101  1.0
  O  O10939  1  0.97368220  0.25379337  0.55297101  1.0
  O  O10940  1  0.97368220  0.42046004  0.55297101  1.0
  O  O10941  1  0.97368220  0.58712671  0.55297101  1.0
  O  O10942  1  0.97368220  0.75379337  0.55297101  1.0
  O  O10943  1  0.97368220  0.92046004  0.55297101  1.0
  O  O10944  1  0.07541995  0.09738954  0.62777935  1.0
  O  O10945  1  0.07541995  0.26405621  0.62777935  1.0
  O  O10946  1  0.07541995  0.43072287  0.62777935  1.0
  O  O10947  1  0.07541995  0.59738954  0.62777935  1.0
  O  O10948  1  0.07541995  0.76405621  0.62777935  1.0
  O  O10949  1  0.07541995  0.93072287  0.62777935  1.0
  O  O10950  1  0.15875328  0.09738954  0.62777935  1.0
  O  O10951  1  0.15875328  0.26405621  0.62777935  1.0
  O  O10952  1  0.15875328  0.43072287  0.62777935  1.0
  O  O10953  1  0.15875328  0.59738954  0.62777935  1.0
  O  O10954  1  0.15875328  0.76405621  0.62777935  1.0
  O  O10955  1  0.15875328  0.93072287  0.62777935  1.0
  O  O10956  1  0.24208662  0.09738954  0.62777935  1.0
  O  O10957  1  0.24208662  0.26405621  0.62777935  1.0
  O  O10958  1  0.24208662  0.43072287  0.62777935  1.0
  O  O10959  1  0.24208662  0.59738954  0.62777935  1.0
  O  O10960  1  0.24208662  0.76405621  0.62777935  1.0
  O  O10961  1  0.24208662  0.93072287  0.62777935  1.0
  O  O10962  1  0.32541995  0.09738954  0.62777935  1.0
  O  O10963  1  0.32541995  0.26405621  0.62777935  1.0
  O  O10964  1  0.32541995  0.43072287  0.62777935  1.0
  O  O10965  1  0.32541995  0.59738954  0.62777935  1.0
  O  O10966  1  0.32541995  0.76405621  0.62777935  1.0
  O  O10967  1  0.32541995  0.93072287  0.62777935  1.0
  O  O10968  1  0.40875328  0.09738954  0.62777935  1.0
  O  O10969  1  0.40875328  0.26405621  0.62777935  1.0
  O  O10970  1  0.40875328  0.43072287  0.62777935  1.0
  O  O10971  1  0.40875328  0.59738954  0.62777935  1.0
  O  O10972  1  0.40875328  0.76405621  0.62777935  1.0
  O  O10973  1  0.40875328  0.93072287  0.62777935  1.0
  O  O10974  1  0.49208662  0.09738954  0.62777935  1.0
  O  O10975  1  0.49208662  0.26405621  0.62777935  1.0
  O  O10976  1  0.49208662  0.43072287  0.62777935  1.0
  O  O10977  1  0.49208662  0.59738954  0.62777935  1.0
  O  O10978  1  0.49208662  0.76405621  0.62777935  1.0
  O  O10979  1  0.49208662  0.93072287  0.62777935  1.0
  O  O10980  1  0.57541995  0.09738954  0.62777935  1.0
  O  O10981  1  0.57541995  0.26405621  0.62777935  1.0
  O  O10982  1  0.57541995  0.43072287  0.62777935  1.0
  O  O10983  1  0.57541995  0.59738954  0.62777935  1.0
  O  O10984  1  0.57541995  0.76405621  0.62777935  1.0
  O  O10985  1  0.57541995  0.93072287  0.62777935  1.0
  O  O10986  1  0.65875328  0.09738954  0.62777935  1.0
  O  O10987  1  0.65875328  0.26405621  0.62777935  1.0
  O  O10988  1  0.65875328  0.43072287  0.62777935  1.0
  O  O10989  1  0.65875328  0.59738954  0.62777935  1.0
  O  O10990  1  0.65875328  0.76405621  0.62777935  1.0
  O  O10991  1  0.65875328  0.93072287  0.62777935  1.0
  O  O10992  1  0.74208662  0.09738954  0.62777935  1.0
  O  O10993  1  0.74208662  0.26405621  0.62777935  1.0
  O  O10994  1  0.74208662  0.43072287  0.62777935  1.0
  O  O10995  1  0.74208662  0.59738954  0.62777935  1.0
  O  O10996  1  0.74208662  0.76405621  0.62777935  1.0
  O  O10997  1  0.74208662  0.93072287  0.62777935  1.0
  O  O10998  1  0.82541995  0.09738954  0.62777935  1.0
  O  O10999  1  0.82541995  0.26405621  0.62777935  1.0
  O  O11000  1  0.82541995  0.43072287  0.62777935  1.0
  O  O11001  1  0.82541995  0.59738954  0.62777935  1.0
  O  O11002  1  0.82541995  0.76405621  0.62777935  1.0
  O  O11003  1  0.82541995  0.93072287  0.62777935  1.0
  O  O11004  1  0.90875328  0.09738954  0.62777935  1.0
  O  O11005  1  0.90875328  0.26405621  0.62777935  1.0
  O  O11006  1  0.90875328  0.43072287  0.62777935  1.0
  O  O11007  1  0.90875328  0.59738954  0.62777935  1.0
  O  O11008  1  0.90875328  0.76405621  0.62777935  1.0
  O  O11009  1  0.90875328  0.93072287  0.62777935  1.0
  O  O11010  1  0.99208662  0.09738954  0.62777935  1.0
  O  O11011  1  0.99208662  0.26405621  0.62777935  1.0
  O  O11012  1  0.99208662  0.43072287  0.62777935  1.0
  O  O11013  1  0.99208662  0.59738954  0.62777935  1.0
  O  O11014  1  0.99208662  0.76405621  0.62777935  1.0
  O  O11015  1  0.99208662  0.93072287  0.62777935  1.0
  O  O11016  1  0.01589614  0.10929430  0.55635077  1.0
  O  O11017  1  0.01589614  0.27596097  0.55635077  1.0
  O  O11018  1  0.01589614  0.44262764  0.55635077  1.0
  O  O11019  1  0.01589614  0.60929430  0.55635077  1.0
  O  O11020  1  0.01589614  0.77596097  0.55635077  1.0
  O  O11021  1  0.01589614  0.94262764  0.55635077  1.0
  O  O11022  1  0.09922947  0.10929430  0.55635077  1.0
  O  O11023  1  0.09922947  0.27596097  0.55635077  1.0
  O  O11024  1  0.09922947  0.44262764  0.55635077  1.0
  O  O11025  1  0.09922947  0.60929430  0.55635077  1.0
  O  O11026  1  0.09922947  0.77596097  0.55635077  1.0
  O  O11027  1  0.09922947  0.94262764  0.55635077  1.0
  O  O11028  1  0.18256281  0.10929430  0.55635077  1.0
  O  O11029  1  0.18256281  0.27596097  0.55635077  1.0
  O  O11030  1  0.18256281  0.44262764  0.55635077  1.0
  O  O11031  1  0.18256281  0.60929430  0.55635077  1.0
  O  O11032  1  0.18256281  0.77596097  0.55635077  1.0
  O  O11033  1  0.18256281  0.94262764  0.55635077  1.0
  O  O11034  1  0.26589614  0.10929430  0.55635077  1.0
  O  O11035  1  0.26589614  0.27596097  0.55635077  1.0
  O  O11036  1  0.26589614  0.44262764  0.55635077  1.0
  O  O11037  1  0.26589614  0.60929430  0.55635077  1.0
  O  O11038  1  0.26589614  0.77596097  0.55635077  1.0
  O  O11039  1  0.26589614  0.94262764  0.55635077  1.0
  O  O11040  1  0.34922947  0.10929430  0.55635077  1.0
  O  O11041  1  0.34922947  0.27596097  0.55635077  1.0
  O  O11042  1  0.34922947  0.44262764  0.55635077  1.0
  O  O11043  1  0.34922947  0.60929430  0.55635077  1.0
  O  O11044  1  0.34922947  0.77596097  0.55635077  1.0
  O  O11045  1  0.34922947  0.94262764  0.55635077  1.0
  O  O11046  1  0.43256281  0.10929430  0.55635077  1.0
  O  O11047  1  0.43256281  0.27596097  0.55635077  1.0
  O  O11048  1  0.43256281  0.44262764  0.55635077  1.0
  O  O11049  1  0.43256281  0.60929430  0.55635077  1.0
  O  O11050  1  0.43256281  0.77596097  0.55635077  1.0
  O  O11051  1  0.43256281  0.94262764  0.55635077  1.0
  O  O11052  1  0.51589614  0.10929430  0.55635077  1.0
  O  O11053  1  0.51589614  0.27596097  0.55635077  1.0
  O  O11054  1  0.51589614  0.44262764  0.55635077  1.0
  O  O11055  1  0.51589614  0.60929430  0.55635077  1.0
  O  O11056  1  0.51589614  0.77596097  0.55635077  1.0
  O  O11057  1  0.51589614  0.94262764  0.55635077  1.0
  O  O11058  1  0.59922947  0.10929430  0.55635077  1.0
  O  O11059  1  0.59922947  0.27596097  0.55635077  1.0
  O  O11060  1  0.59922947  0.44262764  0.55635077  1.0
  O  O11061  1  0.59922947  0.60929430  0.55635077  1.0
  O  O11062  1  0.59922947  0.77596097  0.55635077  1.0
  O  O11063  1  0.59922947  0.94262764  0.55635077  1.0
  O  O11064  1  0.68256281  0.10929430  0.55635077  1.0
  O  O11065  1  0.68256281  0.27596097  0.55635077  1.0
  O  O11066  1  0.68256281  0.44262764  0.55635077  1.0
  O  O11067  1  0.68256281  0.60929430  0.55635077  1.0
  O  O11068  1  0.68256281  0.77596097  0.55635077  1.0
  O  O11069  1  0.68256281  0.94262764  0.55635077  1.0
  O  O11070  1  0.76589614  0.10929430  0.55635077  1.0
  O  O11071  1  0.76589614  0.27596097  0.55635077  1.0
  O  O11072  1  0.76589614  0.44262764  0.55635077  1.0
  O  O11073  1  0.76589614  0.60929430  0.55635077  1.0
  O  O11074  1  0.76589614  0.77596097  0.55635077  1.0
  O  O11075  1  0.76589614  0.94262764  0.55635077  1.0
  O  O11076  1  0.84922947  0.10929430  0.55635077  1.0
  O  O11077  1  0.84922947  0.27596097  0.55635077  1.0
  O  O11078  1  0.84922947  0.44262764  0.55635077  1.0
  O  O11079  1  0.84922947  0.60929430  0.55635077  1.0
  O  O11080  1  0.84922947  0.77596097  0.55635077  1.0
  O  O11081  1  0.84922947  0.94262764  0.55635077  1.0
  O  O11082  1  0.93256281  0.10929430  0.55635077  1.0
  O  O11083  1  0.93256281  0.27596097  0.55635077  1.0
  O  O11084  1  0.93256281  0.44262764  0.55635077  1.0
  O  O11085  1  0.93256281  0.60929430  0.55635077  1.0
  O  O11086  1  0.93256281  0.77596097  0.55635077  1.0
  O  O11087  1  0.93256281  0.94262764  0.55635077  1.0
  O  O11088  1  0.02941595  0.04567447  0.50662124  1.0
  O  O11089  1  0.02941595  0.21234114  0.50662124  1.0
  O  O11090  1  0.02941595  0.37900780  0.50662124  1.0
  O  O11091  1  0.02941595  0.54567447  0.50662124  1.0
  O  O11092  1  0.02941595  0.71234114  0.50662124  1.0
  O  O11093  1  0.02941595  0.87900780  0.50662124  1.0
  O  O11094  1  0.11274928  0.04567447  0.50662124  1.0
  O  O11095  1  0.11274928  0.21234114  0.50662124  1.0
  O  O11096  1  0.11274928  0.37900780  0.50662124  1.0
  O  O11097  1  0.11274928  0.54567447  0.50662124  1.0
  O  O11098  1  0.11274928  0.71234114  0.50662124  1.0
  O  O11099  1  0.11274928  0.87900780  0.50662124  1.0
  O  O11100  1  0.19608261  0.04567447  0.50662124  1.0
  O  O11101  1  0.19608261  0.21234114  0.50662124  1.0
  O  O11102  1  0.19608261  0.37900780  0.50662124  1.0
  O  O11103  1  0.19608261  0.54567447  0.50662124  1.0
  O  O11104  1  0.19608261  0.71234114  0.50662124  1.0
  O  O11105  1  0.19608261  0.87900780  0.50662124  1.0
  O  O11106  1  0.27941595  0.04567447  0.50662124  1.0
  O  O11107  1  0.27941595  0.21234114  0.50662124  1.0
  O  O11108  1  0.27941595  0.37900780  0.50662124  1.0
  O  O11109  1  0.27941595  0.54567447  0.50662124  1.0
  O  O11110  1  0.27941595  0.71234114  0.50662124  1.0
  O  O11111  1  0.27941595  0.87900780  0.50662124  1.0
  O  O11112  1  0.36274928  0.04567447  0.50662124  1.0
  O  O11113  1  0.36274928  0.21234114  0.50662124  1.0
  O  O11114  1  0.36274928  0.37900780  0.50662124  1.0
  O  O11115  1  0.36274928  0.54567447  0.50662124  1.0
  O  O11116  1  0.36274928  0.71234114  0.50662124  1.0
  O  O11117  1  0.36274928  0.87900780  0.50662124  1.0
  O  O11118  1  0.44608261  0.04567447  0.50662124  1.0
  O  O11119  1  0.44608261  0.21234114  0.50662124  1.0
  O  O11120  1  0.44608261  0.37900780  0.50662124  1.0
  O  O11121  1  0.44608261  0.54567447  0.50662124  1.0
  O  O11122  1  0.44608261  0.71234114  0.50662124  1.0
  O  O11123  1  0.44608261  0.87900780  0.50662124  1.0
  O  O11124  1  0.52941595  0.04567447  0.50662124  1.0
  O  O11125  1  0.52941595  0.21234114  0.50662124  1.0
  O  O11126  1  0.52941595  0.37900780  0.50662124  1.0
  O  O11127  1  0.52941595  0.54567447  0.50662124  1.0
  O  O11128  1  0.52941595  0.71234114  0.50662124  1.0
  O  O11129  1  0.52941595  0.87900780  0.50662124  1.0
  O  O11130  1  0.61274928  0.04567447  0.50662124  1.0
  O  O11131  1  0.61274928  0.21234114  0.50662124  1.0
  O  O11132  1  0.61274928  0.37900780  0.50662124  1.0
  O  O11133  1  0.61274928  0.54567447  0.50662124  1.0
  O  O11134  1  0.61274928  0.71234114  0.50662124  1.0
  O  O11135  1  0.61274928  0.87900780  0.50662124  1.0
  O  O11136  1  0.69608261  0.04567447  0.50662124  1.0
  O  O11137  1  0.69608261  0.21234114  0.50662124  1.0
  O  O11138  1  0.69608261  0.37900780  0.50662124  1.0
  O  O11139  1  0.69608261  0.54567447  0.50662124  1.0
  O  O11140  1  0.69608261  0.71234114  0.50662124  1.0
  O  O11141  1  0.69608261  0.87900780  0.50662124  1.0
  O  O11142  1  0.77941595  0.04567447  0.50662124  1.0
  O  O11143  1  0.77941595  0.21234114  0.50662124  1.0
  O  O11144  1  0.77941595  0.37900780  0.50662124  1.0
  O  O11145  1  0.77941595  0.54567447  0.50662124  1.0
  O  O11146  1  0.77941595  0.71234114  0.50662124  1.0
  O  O11147  1  0.77941595  0.87900780  0.50662124  1.0
  O  O11148  1  0.86274928  0.04567447  0.50662124  1.0
  O  O11149  1  0.86274928  0.21234114  0.50662124  1.0
  O  O11150  1  0.86274928  0.37900780  0.50662124  1.0
  O  O11151  1  0.86274928  0.54567447  0.50662124  1.0
  O  O11152  1  0.86274928  0.71234114  0.50662124  1.0
  O  O11153  1  0.86274928  0.87900780  0.50662124  1.0
  O  O11154  1  0.94608261  0.04567447  0.50662124  1.0
  O  O11155  1  0.94608261  0.21234114  0.50662124  1.0
  O  O11156  1  0.94608261  0.37900780  0.50662124  1.0
  O  O11157  1  0.94608261  0.54567447  0.50662124  1.0
  O  O11158  1  0.94608261  0.71234114  0.50662124  1.0
  O  O11159  1  0.94608261  0.87900780  0.50662124  1.0
  O  O11160  1  0.00560642  0.03376971  0.57804981  1.0
  O  O11161  1  0.00560642  0.20043638  0.57804981  1.0
  O  O11162  1  0.00560642  0.36710304  0.57804981  1.0
  O  O11163  1  0.00560642  0.53376971  0.57804981  1.0
  O  O11164  1  0.00560642  0.70043638  0.57804981  1.0
  O  O11165  1  0.00560642  0.86710304  0.57804981  1.0
  O  O11166  1  0.08893976  0.03376971  0.57804981  1.0
  O  O11167  1  0.08893976  0.20043638  0.57804981  1.0
  O  O11168  1  0.08893976  0.36710304  0.57804981  1.0
  O  O11169  1  0.08893976  0.53376971  0.57804981  1.0
  O  O11170  1  0.08893976  0.70043638  0.57804981  1.0
  O  O11171  1  0.08893976  0.86710304  0.57804981  1.0
  O  O11172  1  0.17227309  0.03376971  0.57804981  1.0
  O  O11173  1  0.17227309  0.20043638  0.57804981  1.0
  O  O11174  1  0.17227309  0.36710304  0.57804981  1.0
  O  O11175  1  0.17227309  0.53376971  0.57804981  1.0
  O  O11176  1  0.17227309  0.70043638  0.57804981  1.0
  O  O11177  1  0.17227309  0.86710304  0.57804981  1.0
  O  O11178  1  0.25560642  0.03376971  0.57804981  1.0
  O  O11179  1  0.25560642  0.20043638  0.57804981  1.0
  O  O11180  1  0.25560642  0.36710304  0.57804981  1.0
  O  O11181  1  0.25560642  0.53376971  0.57804981  1.0
  O  O11182  1  0.25560642  0.70043638  0.57804981  1.0
  O  O11183  1  0.25560642  0.86710304  0.57804981  1.0
  O  O11184  1  0.33893976  0.03376971  0.57804981  1.0
  O  O11185  1  0.33893976  0.20043638  0.57804981  1.0
  O  O11186  1  0.33893976  0.36710304  0.57804981  1.0
  O  O11187  1  0.33893976  0.53376971  0.57804981  1.0
  O  O11188  1  0.33893976  0.70043638  0.57804981  1.0
  O  O11189  1  0.33893976  0.86710304  0.57804981  1.0
  O  O11190  1  0.42227309  0.03376971  0.57804981  1.0
  O  O11191  1  0.42227309  0.20043638  0.57804981  1.0
  O  O11192  1  0.42227309  0.36710304  0.57804981  1.0
  O  O11193  1  0.42227309  0.53376971  0.57804981  1.0
  O  O11194  1  0.42227309  0.70043638  0.57804981  1.0
  O  O11195  1  0.42227309  0.86710304  0.57804981  1.0
  O  O11196  1  0.50560642  0.03376971  0.57804981  1.0
  O  O11197  1  0.50560642  0.20043638  0.57804981  1.0
  O  O11198  1  0.50560642  0.36710304  0.57804981  1.0
  O  O11199  1  0.50560642  0.53376971  0.57804981  1.0
  O  O11200  1  0.50560642  0.70043638  0.57804981  1.0
  O  O11201  1  0.50560642  0.86710304  0.57804981  1.0
  O  O11202  1  0.58893976  0.03376971  0.57804981  1.0
  O  O11203  1  0.58893976  0.20043638  0.57804981  1.0
  O  O11204  1  0.58893976  0.36710304  0.57804981  1.0
  O  O11205  1  0.58893976  0.53376971  0.57804981  1.0
  O  O11206  1  0.58893976  0.70043638  0.57804981  1.0
  O  O11207  1  0.58893976  0.86710304  0.57804981  1.0
  O  O11208  1  0.67227309  0.03376971  0.57804981  1.0
  O  O11209  1  0.67227309  0.20043638  0.57804981  1.0
  O  O11210  1  0.67227309  0.36710304  0.57804981  1.0
  O  O11211  1  0.67227309  0.53376971  0.57804981  1.0
  O  O11212  1  0.67227309  0.70043638  0.57804981  1.0
  O  O11213  1  0.67227309  0.86710304  0.57804981  1.0
  O  O11214  1  0.75560642  0.03376971  0.57804981  1.0
  O  O11215  1  0.75560642  0.20043638  0.57804981  1.0
  O  O11216  1  0.75560642  0.36710304  0.57804981  1.0
  O  O11217  1  0.75560642  0.53376971  0.57804981  1.0
  O  O11218  1  0.75560642  0.70043638  0.57804981  1.0
  O  O11219  1  0.75560642  0.86710304  0.57804981  1.0
  O  O11220  1  0.83893976  0.03376971  0.57804981  1.0
  O  O11221  1  0.83893976  0.20043638  0.57804981  1.0
  O  O11222  1  0.83893976  0.36710304  0.57804981  1.0
  O  O11223  1  0.83893976  0.53376971  0.57804981  1.0
  O  O11224  1  0.83893976  0.70043638  0.57804981  1.0
  O  O11225  1  0.83893976  0.86710304  0.57804981  1.0
  O  O11226  1  0.92227309  0.03376971  0.57804981  1.0
  O  O11227  1  0.92227309  0.20043638  0.57804981  1.0
  O  O11228  1  0.92227309  0.36710304  0.57804981  1.0
  O  O11229  1  0.92227309  0.53376971  0.57804981  1.0
  O  O11230  1  0.92227309  0.70043638  0.57804981  1.0
  O  O11231  1  0.92227309  0.86710304  0.57804981  1.0
  O  O11232  1  0.03364412  0.02823643  0.61387146  1.0
  O  O11233  1  0.03364412  0.19490309  0.61387146  1.0
  O  O11234  1  0.03364412  0.36156976  0.61387146  1.0
  O  O11235  1  0.03364412  0.52823643  0.61387146  1.0
  O  O11236  1  0.03364412  0.69490309  0.61387146  1.0
  O  O11237  1  0.03364412  0.86156976  0.61387146  1.0
  O  O11238  1  0.11697746  0.02823643  0.61387146  1.0
  O  O11239  1  0.11697746  0.19490309  0.61387146  1.0
  O  O11240  1  0.11697746  0.36156976  0.61387146  1.0
  O  O11241  1  0.11697746  0.52823643  0.61387146  1.0
  O  O11242  1  0.11697746  0.69490309  0.61387146  1.0
  O  O11243  1  0.11697746  0.86156976  0.61387146  1.0
  O  O11244  1  0.20031079  0.02823643  0.61387146  1.0
  O  O11245  1  0.20031079  0.19490309  0.61387146  1.0
  O  O11246  1  0.20031079  0.36156976  0.61387146  1.0
  O  O11247  1  0.20031079  0.52823643  0.61387146  1.0
  O  O11248  1  0.20031079  0.69490309  0.61387146  1.0
  O  O11249  1  0.20031079  0.86156976  0.61387146  1.0
  O  O11250  1  0.28364412  0.02823643  0.61387146  1.0
  O  O11251  1  0.28364412  0.19490309  0.61387146  1.0
  O  O11252  1  0.28364412  0.36156976  0.61387146  1.0
  O  O11253  1  0.28364412  0.52823643  0.61387146  1.0
  O  O11254  1  0.28364412  0.69490309  0.61387146  1.0
  O  O11255  1  0.28364412  0.86156976  0.61387146  1.0
  O  O11256  1  0.36697746  0.02823643  0.61387146  1.0
  O  O11257  1  0.36697746  0.19490309  0.61387146  1.0
  O  O11258  1  0.36697746  0.36156976  0.61387146  1.0
  O  O11259  1  0.36697746  0.52823643  0.61387146  1.0
  O  O11260  1  0.36697746  0.69490309  0.61387146  1.0
  O  O11261  1  0.36697746  0.86156976  0.61387146  1.0
  O  O11262  1  0.45031079  0.02823643  0.61387146  1.0
  O  O11263  1  0.45031079  0.19490309  0.61387146  1.0
  O  O11264  1  0.45031079  0.36156976  0.61387146  1.0
  O  O11265  1  0.45031079  0.52823643  0.61387146  1.0
  O  O11266  1  0.45031079  0.69490309  0.61387146  1.0
  O  O11267  1  0.45031079  0.86156976  0.61387146  1.0
  O  O11268  1  0.53364412  0.02823643  0.61387146  1.0
  O  O11269  1  0.53364412  0.19490309  0.61387146  1.0
  O  O11270  1  0.53364412  0.36156976  0.61387146  1.0
  O  O11271  1  0.53364412  0.52823643  0.61387146  1.0
  O  O11272  1  0.53364412  0.69490309  0.61387146  1.0
  O  O11273  1  0.53364412  0.86156976  0.61387146  1.0
  O  O11274  1  0.61697746  0.02823643  0.61387146  1.0
  O  O11275  1  0.61697746  0.19490309  0.61387146  1.0
  O  O11276  1  0.61697746  0.36156976  0.61387146  1.0
  O  O11277  1  0.61697746  0.52823643  0.61387146  1.0
  O  O11278  1  0.61697746  0.69490309  0.61387146  1.0
  O  O11279  1  0.61697746  0.86156976  0.61387146  1.0
  O  O11280  1  0.70031079  0.02823643  0.61387146  1.0
  O  O11281  1  0.70031079  0.19490309  0.61387146  1.0
  O  O11282  1  0.70031079  0.36156976  0.61387146  1.0
  O  O11283  1  0.70031079  0.52823643  0.61387146  1.0
  O  O11284  1  0.70031079  0.69490309  0.61387146  1.0
  O  O11285  1  0.70031079  0.86156976  0.61387146  1.0
  O  O11286  1  0.78364412  0.02823643  0.61387146  1.0
  O  O11287  1  0.78364412  0.19490309  0.61387146  1.0
  O  O11288  1  0.78364412  0.36156976  0.61387146  1.0
  O  O11289  1  0.78364412  0.52823643  0.61387146  1.0
  O  O11290  1  0.78364412  0.69490309  0.61387146  1.0
  O  O11291  1  0.78364412  0.86156976  0.61387146  1.0
  O  O11292  1  0.86697746  0.02823643  0.61387146  1.0
  O  O11293  1  0.86697746  0.19490309  0.61387146  1.0
  O  O11294  1  0.86697746  0.36156976  0.61387146  1.0
  O  O11295  1  0.86697746  0.52823643  0.61387146  1.0
  O  O11296  1  0.86697746  0.69490309  0.61387146  1.0
  O  O11297  1  0.86697746  0.86156976  0.61387146  1.0
  O  O11298  1  0.95031079  0.02823643  0.61387146  1.0
  O  O11299  1  0.95031079  0.19490309  0.61387146  1.0
  O  O11300  1  0.95031079  0.36156976  0.61387146  1.0
  O  O11301  1  0.95031079  0.52823643  0.61387146  1.0
  O  O11302  1  0.95031079  0.69490309  0.61387146  1.0
  O  O11303  1  0.95031079  0.86156976  0.61387146  1.0
  O  O11304  1  0.05745365  0.04014119  0.54244289  1.0
  O  O11305  1  0.05745365  0.20680786  0.54244289  1.0
  O  O11306  1  0.05745365  0.37347452  0.54244289  1.0
  O  O11307  1  0.05745365  0.54014119  0.54244289  1.0
  O  O11308  1  0.05745365  0.70680786  0.54244289  1.0
  O  O11309  1  0.05745365  0.87347452  0.54244289  1.0
  O  O11310  1  0.14078698  0.04014119  0.54244289  1.0
  O  O11311  1  0.14078698  0.20680786  0.54244289  1.0
  O  O11312  1  0.14078698  0.37347452  0.54244289  1.0
  O  O11313  1  0.14078698  0.54014119  0.54244289  1.0
  O  O11314  1  0.14078698  0.70680786  0.54244289  1.0
  O  O11315  1  0.14078698  0.87347452  0.54244289  1.0
  O  O11316  1  0.22412031  0.04014119  0.54244289  1.0
  O  O11317  1  0.22412031  0.20680786  0.54244289  1.0
  O  O11318  1  0.22412031  0.37347452  0.54244289  1.0
  O  O11319  1  0.22412031  0.54014119  0.54244289  1.0
  O  O11320  1  0.22412031  0.70680786  0.54244289  1.0
  O  O11321  1  0.22412031  0.87347452  0.54244289  1.0
  O  O11322  1  0.30745365  0.04014119  0.54244289  1.0
  O  O11323  1  0.30745365  0.20680786  0.54244289  1.0
  O  O11324  1  0.30745365  0.37347452  0.54244289  1.0
  O  O11325  1  0.30745365  0.54014119  0.54244289  1.0
  O  O11326  1  0.30745365  0.70680786  0.54244289  1.0
  O  O11327  1  0.30745365  0.87347452  0.54244289  1.0
  O  O11328  1  0.39078698  0.04014119  0.54244289  1.0
  O  O11329  1  0.39078698  0.20680786  0.54244289  1.0
  O  O11330  1  0.39078698  0.37347452  0.54244289  1.0
  O  O11331  1  0.39078698  0.54014119  0.54244289  1.0
  O  O11332  1  0.39078698  0.70680786  0.54244289  1.0
  O  O11333  1  0.39078698  0.87347452  0.54244289  1.0
  O  O11334  1  0.47412031  0.04014119  0.54244289  1.0
  O  O11335  1  0.47412031  0.20680786  0.54244289  1.0
  O  O11336  1  0.47412031  0.37347452  0.54244289  1.0
  O  O11337  1  0.47412031  0.54014119  0.54244289  1.0
  O  O11338  1  0.47412031  0.70680786  0.54244289  1.0
  O  O11339  1  0.47412031  0.87347452  0.54244289  1.0
  O  O11340  1  0.55745365  0.04014119  0.54244289  1.0
  O  O11341  1  0.55745365  0.20680786  0.54244289  1.0
  O  O11342  1  0.55745365  0.37347452  0.54244289  1.0
  O  O11343  1  0.55745365  0.54014119  0.54244289  1.0
  O  O11344  1  0.55745365  0.70680786  0.54244289  1.0
  O  O11345  1  0.55745365  0.87347452  0.54244289  1.0
  O  O11346  1  0.64078698  0.04014119  0.54244289  1.0
  O  O11347  1  0.64078698  0.20680786  0.54244289  1.0
  O  O11348  1  0.64078698  0.37347452  0.54244289  1.0
  O  O11349  1  0.64078698  0.54014119  0.54244289  1.0
  O  O11350  1  0.64078698  0.70680786  0.54244289  1.0
  O  O11351  1  0.64078698  0.87347452  0.54244289  1.0
  O  O11352  1  0.72412031  0.04014119  0.54244289  1.0
  O  O11353  1  0.72412031  0.20680786  0.54244289  1.0
  O  O11354  1  0.72412031  0.37347452  0.54244289  1.0
  O  O11355  1  0.72412031  0.54014119  0.54244289  1.0
  O  O11356  1  0.72412031  0.70680786  0.54244289  1.0
  O  O11357  1  0.72412031  0.87347452  0.54244289  1.0
  O  O11358  1  0.80745365  0.04014119  0.54244289  1.0
  O  O11359  1  0.80745365  0.20680786  0.54244289  1.0
  O  O11360  1  0.80745365  0.37347452  0.54244289  1.0
  O  O11361  1  0.80745365  0.54014119  0.54244289  1.0
  O  O11362  1  0.80745365  0.70680786  0.54244289  1.0
  O  O11363  1  0.80745365  0.87347452  0.54244289  1.0
  O  O11364  1  0.89078698  0.04014119  0.54244289  1.0
  O  O11365  1  0.89078698  0.20680786  0.54244289  1.0
  O  O11366  1  0.89078698  0.37347452  0.54244289  1.0
  O  O11367  1  0.89078698  0.54014119  0.54244289  1.0
  O  O11368  1  0.89078698  0.70680786  0.54244289  1.0
  O  O11369  1  0.89078698  0.87347452  0.54244289  1.0
  O  O11370  1  0.97412031  0.04014119  0.54244289  1.0
  O  O11371  1  0.97412031  0.20680786  0.54244289  1.0
  O  O11372  1  0.97412031  0.37347452  0.54244289  1.0
  O  O11373  1  0.97412031  0.54014119  0.54244289  1.0
  O  O11374  1  0.97412031  0.70680786  0.54244289  1.0
  O  O11375  1  0.97412031  0.87347452  0.54244289  1.0
  O  O11376  1  0.02606612  0.09161558  0.51499860  1.0
  O  O11377  1  0.02606612  0.25828225  0.51499860  1.0
  O  O11378  1  0.02606612  0.42494892  0.51499860  1.0
  O  O11379  1  0.02606612  0.59161558  0.51499860  1.0
  O  O11380  1  0.02606612  0.75828225  0.51499860  1.0
  O  O11381  1  0.02606612  0.92494892  0.51499860  1.0
  O  O11382  1  0.10939945  0.09161558  0.51499860  1.0
  O  O11383  1  0.10939945  0.25828225  0.51499860  1.0
  O  O11384  1  0.10939945  0.42494892  0.51499860  1.0
  O  O11385  1  0.10939945  0.59161558  0.51499860  1.0
  O  O11386  1  0.10939945  0.75828225  0.51499860  1.0
  O  O11387  1  0.10939945  0.92494892  0.51499860  1.0
  O  O11388  1  0.19273279  0.09161558  0.51499860  1.0
  O  O11389  1  0.19273279  0.25828225  0.51499860  1.0
  O  O11390  1  0.19273279  0.42494892  0.51499860  1.0
  O  O11391  1  0.19273279  0.59161558  0.51499860  1.0
  O  O11392  1  0.19273279  0.75828225  0.51499860  1.0
  O  O11393  1  0.19273279  0.92494892  0.51499860  1.0
  O  O11394  1  0.27606612  0.09161558  0.51499860  1.0
  O  O11395  1  0.27606612  0.25828225  0.51499860  1.0
  O  O11396  1  0.27606612  0.42494892  0.51499860  1.0
  O  O11397  1  0.27606612  0.59161558  0.51499860  1.0
  O  O11398  1  0.27606612  0.75828225  0.51499860  1.0
  O  O11399  1  0.27606612  0.92494892  0.51499860  1.0
  O  O11400  1  0.35939945  0.09161558  0.51499860  1.0
  O  O11401  1  0.35939945  0.25828225  0.51499860  1.0
  O  O11402  1  0.35939945  0.42494892  0.51499860  1.0
  O  O11403  1  0.35939945  0.59161558  0.51499860  1.0
  O  O11404  1  0.35939945  0.75828225  0.51499860  1.0
  O  O11405  1  0.35939945  0.92494892  0.51499860  1.0
  O  O11406  1  0.44273279  0.09161558  0.51499860  1.0
  O  O11407  1  0.44273279  0.25828225  0.51499860  1.0
  O  O11408  1  0.44273279  0.42494892  0.51499860  1.0
  O  O11409  1  0.44273279  0.59161558  0.51499860  1.0
  O  O11410  1  0.44273279  0.75828225  0.51499860  1.0
  O  O11411  1  0.44273279  0.92494892  0.51499860  1.0
  O  O11412  1  0.52606612  0.09161558  0.51499860  1.0
  O  O11413  1  0.52606612  0.25828225  0.51499860  1.0
  O  O11414  1  0.52606612  0.42494892  0.51499860  1.0
  O  O11415  1  0.52606612  0.59161558  0.51499860  1.0
  O  O11416  1  0.52606612  0.75828225  0.51499860  1.0
  O  O11417  1  0.52606612  0.92494892  0.51499860  1.0
  O  O11418  1  0.60939945  0.09161558  0.51499860  1.0
  O  O11419  1  0.60939945  0.25828225  0.51499860  1.0
  O  O11420  1  0.60939945  0.42494892  0.51499860  1.0
  O  O11421  1  0.60939945  0.59161558  0.51499860  1.0
  O  O11422  1  0.60939945  0.75828225  0.51499860  1.0
  O  O11423  1  0.60939945  0.92494892  0.51499860  1.0
  O  O11424  1  0.69273279  0.09161558  0.51499860  1.0
  O  O11425  1  0.69273279  0.25828225  0.51499860  1.0
  O  O11426  1  0.69273279  0.42494892  0.51499860  1.0
  O  O11427  1  0.69273279  0.59161558  0.51499860  1.0
  O  O11428  1  0.69273279  0.75828225  0.51499860  1.0
  O  O11429  1  0.69273279  0.92494892  0.51499860  1.0
  O  O11430  1  0.77606612  0.09161558  0.51499860  1.0
  O  O11431  1  0.77606612  0.25828225  0.51499860  1.0
  O  O11432  1  0.77606612  0.42494892  0.51499860  1.0
  O  O11433  1  0.77606612  0.59161558  0.51499860  1.0
  O  O11434  1  0.77606612  0.75828225  0.51499860  1.0
  O  O11435  1  0.77606612  0.92494892  0.51499860  1.0
  O  O11436  1  0.85939945  0.09161558  0.51499860  1.0
  O  O11437  1  0.85939945  0.25828225  0.51499860  1.0
  O  O11438  1  0.85939945  0.42494892  0.51499860  1.0
  O  O11439  1  0.85939945  0.59161558  0.51499860  1.0
  O  O11440  1  0.85939945  0.75828225  0.51499860  1.0
  O  O11441  1  0.85939945  0.92494892  0.51499860  1.0
  O  O11442  1  0.94273279  0.09161558  0.51499860  1.0
  O  O11443  1  0.94273279  0.25828225  0.51499860  1.0
  O  O11444  1  0.94273279  0.42494892  0.51499860  1.0
  O  O11445  1  0.94273279  0.59161558  0.51499860  1.0
  O  O11446  1  0.94273279  0.75828225  0.51499860  1.0
  O  O11447  1  0.94273279  0.92494892  0.51499860  1.0
  O  O11448  1  0.00225660  0.07971082  0.58642717  1.0
  O  O11449  1  0.00225660  0.24637749  0.58642717  1.0
  O  O11450  1  0.00225660  0.41304415  0.58642717  1.0
  O  O11451  1  0.00225660  0.57971082  0.58642717  1.0
  O  O11452  1  0.00225660  0.74637749  0.58642717  1.0
  O  O11453  1  0.00225660  0.91304415  0.58642717  1.0
  O  O11454  1  0.08558993  0.07971082  0.58642717  1.0
  O  O11455  1  0.08558993  0.24637749  0.58642717  1.0
  O  O11456  1  0.08558993  0.41304415  0.58642717  1.0
  O  O11457  1  0.08558993  0.57971082  0.58642717  1.0
  O  O11458  1  0.08558993  0.74637749  0.58642717  1.0
  O  O11459  1  0.08558993  0.91304415  0.58642717  1.0
  O  O11460  1  0.16892326  0.07971082  0.58642717  1.0
  O  O11461  1  0.16892326  0.24637749  0.58642717  1.0
  O  O11462  1  0.16892326  0.41304415  0.58642717  1.0
  O  O11463  1  0.16892326  0.57971082  0.58642717  1.0
  O  O11464  1  0.16892326  0.74637749  0.58642717  1.0
  O  O11465  1  0.16892326  0.91304415  0.58642717  1.0
  O  O11466  1  0.25225660  0.07971082  0.58642717  1.0
  O  O11467  1  0.25225660  0.24637749  0.58642717  1.0
  O  O11468  1  0.25225660  0.41304415  0.58642717  1.0
  O  O11469  1  0.25225660  0.57971082  0.58642717  1.0
  O  O11470  1  0.25225660  0.74637749  0.58642717  1.0
  O  O11471  1  0.25225660  0.91304415  0.58642717  1.0
  O  O11472  1  0.33558993  0.07971082  0.58642717  1.0
  O  O11473  1  0.33558993  0.24637749  0.58642717  1.0
  O  O11474  1  0.33558993  0.41304415  0.58642717  1.0
  O  O11475  1  0.33558993  0.57971082  0.58642717  1.0
  O  O11476  1  0.33558993  0.74637749  0.58642717  1.0
  O  O11477  1  0.33558993  0.91304415  0.58642717  1.0
  O  O11478  1  0.41892326  0.07971082  0.58642717  1.0
  O  O11479  1  0.41892326  0.24637749  0.58642717  1.0
  O  O11480  1  0.41892326  0.41304415  0.58642717  1.0
  O  O11481  1  0.41892326  0.57971082  0.58642717  1.0
  O  O11482  1  0.41892326  0.74637749  0.58642717  1.0
  O  O11483  1  0.41892326  0.91304415  0.58642717  1.0
  O  O11484  1  0.50225660  0.07971082  0.58642717  1.0
  O  O11485  1  0.50225660  0.24637749  0.58642717  1.0
  O  O11486  1  0.50225660  0.41304415  0.58642717  1.0
  O  O11487  1  0.50225660  0.57971082  0.58642717  1.0
  O  O11488  1  0.50225660  0.74637749  0.58642717  1.0
  O  O11489  1  0.50225660  0.91304415  0.58642717  1.0
  O  O11490  1  0.58558993  0.07971082  0.58642717  1.0
  O  O11491  1  0.58558993  0.24637749  0.58642717  1.0
  O  O11492  1  0.58558993  0.41304415  0.58642717  1.0
  O  O11493  1  0.58558993  0.57971082  0.58642717  1.0
  O  O11494  1  0.58558993  0.74637749  0.58642717  1.0
  O  O11495  1  0.58558993  0.91304415  0.58642717  1.0
  O  O11496  1  0.66892326  0.07971082  0.58642717  1.0
  O  O11497  1  0.66892326  0.24637749  0.58642717  1.0
  O  O11498  1  0.66892326  0.41304415  0.58642717  1.0
  O  O11499  1  0.66892326  0.57971082  0.58642717  1.0
  O  O11500  1  0.66892326  0.74637749  0.58642717  1.0
  O  O11501  1  0.66892326  0.91304415  0.58642717  1.0
  O  O11502  1  0.75225660  0.07971082  0.58642717  1.0
  O  O11503  1  0.75225660  0.24637749  0.58642717  1.0
  O  O11504  1  0.75225660  0.41304415  0.58642717  1.0
  O  O11505  1  0.75225660  0.57971082  0.58642717  1.0
  O  O11506  1  0.75225660  0.74637749  0.58642717  1.0
  O  O11507  1  0.75225660  0.91304415  0.58642717  1.0
  O  O11508  1  0.83558993  0.07971082  0.58642717  1.0
  O  O11509  1  0.83558993  0.24637749  0.58642717  1.0
  O  O11510  1  0.83558993  0.41304415  0.58642717  1.0
  O  O11511  1  0.83558993  0.57971082  0.58642717  1.0
  O  O11512  1  0.83558993  0.74637749  0.58642717  1.0
  O  O11513  1  0.83558993  0.91304415  0.58642717  1.0
  O  O11514  1  0.91892326  0.07971082  0.58642717  1.0
  O  O11515  1  0.91892326  0.24637749  0.58642717  1.0
  O  O11516  1  0.91892326  0.41304415  0.58642717  1.0
  O  O11517  1  0.91892326  0.57971082  0.58642717  1.0
  O  O11518  1  0.91892326  0.74637749  0.58642717  1.0
  O  O11519  1  0.91892326  0.91304415  0.58642717  1.0
  O  O11520  1  0.07591903  0.05048657  0.61725795  1.0
  O  O11521  1  0.07591903  0.21715324  0.61725795  1.0
  O  O11522  1  0.07591903  0.38381990  0.61725795  1.0
  O  O11523  1  0.07591903  0.55048657  0.61725795  1.0
  O  O11524  1  0.07591903  0.71715324  0.61725795  1.0
  O  O11525  1  0.07591903  0.88381990  0.61725795  1.0
  O  O11526  1  0.15925236  0.05048657  0.61725795  1.0
  O  O11527  1  0.15925236  0.21715324  0.61725795  1.0
  O  O11528  1  0.15925236  0.38381990  0.61725795  1.0
  O  O11529  1  0.15925236  0.55048657  0.61725795  1.0
  O  O11530  1  0.15925236  0.71715324  0.61725795  1.0
  O  O11531  1  0.15925236  0.88381990  0.61725795  1.0
  O  O11532  1  0.24258570  0.05048657  0.61725795  1.0
  O  O11533  1  0.24258570  0.21715324  0.61725795  1.0
  O  O11534  1  0.24258570  0.38381990  0.61725795  1.0
  O  O11535  1  0.24258570  0.55048657  0.61725795  1.0
  O  O11536  1  0.24258570  0.71715324  0.61725795  1.0
  O  O11537  1  0.24258570  0.88381990  0.61725795  1.0
  O  O11538  1  0.32591903  0.05048657  0.61725795  1.0
  O  O11539  1  0.32591903  0.21715324  0.61725795  1.0
  O  O11540  1  0.32591903  0.38381990  0.61725795  1.0
  O  O11541  1  0.32591903  0.55048657  0.61725795  1.0
  O  O11542  1  0.32591903  0.71715324  0.61725795  1.0
  O  O11543  1  0.32591903  0.88381990  0.61725795  1.0
  O  O11544  1  0.40925236  0.05048657  0.61725795  1.0
  O  O11545  1  0.40925236  0.21715324  0.61725795  1.0
  O  O11546  1  0.40925236  0.38381990  0.61725795  1.0
  O  O11547  1  0.40925236  0.55048657  0.61725795  1.0
  O  O11548  1  0.40925236  0.71715324  0.61725795  1.0
  O  O11549  1  0.40925236  0.88381990  0.61725795  1.0
  O  O11550  1  0.49258570  0.05048657  0.61725795  1.0
  O  O11551  1  0.49258570  0.21715324  0.61725795  1.0
  O  O11552  1  0.49258570  0.38381990  0.61725795  1.0
  O  O11553  1  0.49258570  0.55048657  0.61725795  1.0
  O  O11554  1  0.49258570  0.71715324  0.61725795  1.0
  O  O11555  1  0.49258570  0.88381990  0.61725795  1.0
  O  O11556  1  0.57591903  0.05048657  0.61725795  1.0
  O  O11557  1  0.57591903  0.21715324  0.61725795  1.0
  O  O11558  1  0.57591903  0.38381990  0.61725795  1.0
  O  O11559  1  0.57591903  0.55048657  0.61725795  1.0
  O  O11560  1  0.57591903  0.71715324  0.61725795  1.0
  O  O11561  1  0.57591903  0.88381990  0.61725795  1.0
  O  O11562  1  0.65925236  0.05048657  0.61725795  1.0
  O  O11563  1  0.65925236  0.21715324  0.61725795  1.0
  O  O11564  1  0.65925236  0.38381990  0.61725795  1.0
  O  O11565  1  0.65925236  0.55048657  0.61725795  1.0
  O  O11566  1  0.65925236  0.71715324  0.61725795  1.0
  O  O11567  1  0.65925236  0.88381990  0.61725795  1.0
  O  O11568  1  0.74258570  0.05048657  0.61725795  1.0
  O  O11569  1  0.74258570  0.21715324  0.61725795  1.0
  O  O11570  1  0.74258570  0.38381990  0.61725795  1.0
  O  O11571  1  0.74258570  0.55048657  0.61725795  1.0
  O  O11572  1  0.74258570  0.71715324  0.61725795  1.0
  O  O11573  1  0.74258570  0.88381990  0.61725795  1.0
  O  O11574  1  0.82591903  0.05048657  0.61725795  1.0
  O  O11575  1  0.82591903  0.21715324  0.61725795  1.0
  O  O11576  1  0.82591903  0.38381990  0.61725795  1.0
  O  O11577  1  0.82591903  0.55048657  0.61725795  1.0
  O  O11578  1  0.82591903  0.71715324  0.61725795  1.0
  O  O11579  1  0.82591903  0.88381990  0.61725795  1.0
  O  O11580  1  0.90925236  0.05048657  0.61725795  1.0
  O  O11581  1  0.90925236  0.21715324  0.61725795  1.0
  O  O11582  1  0.90925236  0.38381990  0.61725795  1.0
  O  O11583  1  0.90925236  0.55048657  0.61725795  1.0
  O  O11584  1  0.90925236  0.71715324  0.61725795  1.0
  O  O11585  1  0.90925236  0.88381990  0.61725795  1.0
  O  O11586  1  0.99258570  0.05048657  0.61725795  1.0
  O  O11587  1  0.99258570  0.21715324  0.61725795  1.0
  O  O11588  1  0.99258570  0.38381990  0.61725795  1.0
  O  O11589  1  0.99258570  0.55048657  0.61725795  1.0
  O  O11590  1  0.99258570  0.71715324  0.61725795  1.0
  O  O11591  1  0.99258570  0.88381990  0.61725795  1.0
  O  O11592  1  0.01639522  0.06239133  0.54582938  1.0
  O  O11593  1  0.01639522  0.22905800  0.54582938  1.0
  O  O11594  1  0.01639522  0.39572467  0.54582938  1.0
  O  O11595  1  0.01639522  0.56239133  0.54582938  1.0
  O  O11596  1  0.01639522  0.72905800  0.54582938  1.0
  O  O11597  1  0.01639522  0.89572467  0.54582938  1.0
  O  O11598  1  0.09972855  0.06239133  0.54582938  1.0
  O  O11599  1  0.09972855  0.22905800  0.54582938  1.0
  O  O11600  1  0.09972855  0.39572467  0.54582938  1.0
  O  O11601  1  0.09972855  0.56239133  0.54582938  1.0
  O  O11602  1  0.09972855  0.72905800  0.54582938  1.0
  O  O11603  1  0.09972855  0.89572467  0.54582938  1.0
  O  O11604  1  0.18306189  0.06239133  0.54582938  1.0
  O  O11605  1  0.18306189  0.22905800  0.54582938  1.0
  O  O11606  1  0.18306189  0.39572467  0.54582938  1.0
  O  O11607  1  0.18306189  0.56239133  0.54582938  1.0
  O  O11608  1  0.18306189  0.72905800  0.54582938  1.0
  O  O11609  1  0.18306189  0.89572467  0.54582938  1.0
  O  O11610  1  0.26639522  0.06239133  0.54582938  1.0
  O  O11611  1  0.26639522  0.22905800  0.54582938  1.0
  O  O11612  1  0.26639522  0.39572467  0.54582938  1.0
  O  O11613  1  0.26639522  0.56239133  0.54582938  1.0
  O  O11614  1  0.26639522  0.72905800  0.54582938  1.0
  O  O11615  1  0.26639522  0.89572467  0.54582938  1.0
  O  O11616  1  0.34972855  0.06239133  0.54582938  1.0
  O  O11617  1  0.34972855  0.22905800  0.54582938  1.0
  O  O11618  1  0.34972855  0.39572467  0.54582938  1.0
  O  O11619  1  0.34972855  0.56239133  0.54582938  1.0
  O  O11620  1  0.34972855  0.72905800  0.54582938  1.0
  O  O11621  1  0.34972855  0.89572467  0.54582938  1.0
  O  O11622  1  0.43306189  0.06239133  0.54582938  1.0
  O  O11623  1  0.43306189  0.22905800  0.54582938  1.0
  O  O11624  1  0.43306189  0.39572467  0.54582938  1.0
  O  O11625  1  0.43306189  0.56239133  0.54582938  1.0
  O  O11626  1  0.43306189  0.72905800  0.54582938  1.0
  O  O11627  1  0.43306189  0.89572467  0.54582938  1.0
  O  O11628  1  0.51639522  0.06239133  0.54582938  1.0
  O  O11629  1  0.51639522  0.22905800  0.54582938  1.0
  O  O11630  1  0.51639522  0.39572467  0.54582938  1.0
  O  O11631  1  0.51639522  0.56239133  0.54582938  1.0
  O  O11632  1  0.51639522  0.72905800  0.54582938  1.0
  O  O11633  1  0.51639522  0.89572467  0.54582938  1.0
  O  O11634  1  0.59972855  0.06239133  0.54582938  1.0
  O  O11635  1  0.59972855  0.22905800  0.54582938  1.0
  O  O11636  1  0.59972855  0.39572467  0.54582938  1.0
  O  O11637  1  0.59972855  0.56239133  0.54582938  1.0
  O  O11638  1  0.59972855  0.72905800  0.54582938  1.0
  O  O11639  1  0.59972855  0.89572467  0.54582938  1.0
  O  O11640  1  0.68306189  0.06239133  0.54582938  1.0
  O  O11641  1  0.68306189  0.22905800  0.54582938  1.0
  O  O11642  1  0.68306189  0.39572467  0.54582938  1.0
  O  O11643  1  0.68306189  0.56239133  0.54582938  1.0
  O  O11644  1  0.68306189  0.72905800  0.54582938  1.0
  O  O11645  1  0.68306189  0.89572467  0.54582938  1.0
  O  O11646  1  0.76639522  0.06239133  0.54582938  1.0
  O  O11647  1  0.76639522  0.22905800  0.54582938  1.0
  O  O11648  1  0.76639522  0.39572467  0.54582938  1.0
  O  O11649  1  0.76639522  0.56239133  0.54582938  1.0
  O  O11650  1  0.76639522  0.72905800  0.54582938  1.0
  O  O11651  1  0.76639522  0.89572467  0.54582938  1.0
  O  O11652  1  0.84972855  0.06239133  0.54582938  1.0
  O  O11653  1  0.84972855  0.22905800  0.54582938  1.0
  O  O11654  1  0.84972855  0.39572467  0.54582938  1.0
  O  O11655  1  0.84972855  0.56239133  0.54582938  1.0
  O  O11656  1  0.84972855  0.72905800  0.54582938  1.0
  O  O11657  1  0.84972855  0.89572467  0.54582938  1.0
  O  O11658  1  0.93306189  0.06239133  0.54582938  1.0
  O  O11659  1  0.93306189  0.22905800  0.54582938  1.0
  O  O11660  1  0.93306189  0.39572467  0.54582938  1.0
  O  O11661  1  0.93306189  0.56239133  0.54582938  1.0
  O  O11662  1  0.93306189  0.72905800  0.54582938  1.0
  O  O11663  1  0.93306189  0.89572467  0.54582938  1.0
  O  O11664  1  0.01586037  0.13672648  0.67435085  1.0
  O  O11665  1  0.01586037  0.30339314  0.67435085  1.0
  O  O11666  1  0.01586037  0.47005981  0.67435085  1.0
  O  O11667  1  0.01586037  0.63672648  0.67435085  1.0
  O  O11668  1  0.01586037  0.80339314  0.67435085  1.0
  O  O11669  1  0.01586037  0.97005981  0.67435085  1.0
  O  O11670  1  0.09919371  0.13672648  0.67435085  1.0
  O  O11671  1  0.09919371  0.30339314  0.67435085  1.0
  O  O11672  1  0.09919371  0.47005981  0.67435085  1.0
  O  O11673  1  0.09919371  0.63672648  0.67435085  1.0
  O  O11674  1  0.09919371  0.80339314  0.67435085  1.0
  O  O11675  1  0.09919371  0.97005981  0.67435085  1.0
  O  O11676  1  0.18252704  0.13672648  0.67435085  1.0
  O  O11677  1  0.18252704  0.30339314  0.67435085  1.0
  O  O11678  1  0.18252704  0.47005981  0.67435085  1.0
  O  O11679  1  0.18252704  0.63672648  0.67435085  1.0
  O  O11680  1  0.18252704  0.80339314  0.67435085  1.0
  O  O11681  1  0.18252704  0.97005981  0.67435085  1.0
  O  O11682  1  0.26586037  0.13672648  0.67435085  1.0
  O  O11683  1  0.26586037  0.30339314  0.67435085  1.0
  O  O11684  1  0.26586037  0.47005981  0.67435085  1.0
  O  O11685  1  0.26586037  0.63672648  0.67435085  1.0
  O  O11686  1  0.26586037  0.80339314  0.67435085  1.0
  O  O11687  1  0.26586037  0.97005981  0.67435085  1.0
  O  O11688  1  0.34919371  0.13672648  0.67435085  1.0
  O  O11689  1  0.34919371  0.30339314  0.67435085  1.0
  O  O11690  1  0.34919371  0.47005981  0.67435085  1.0
  O  O11691  1  0.34919371  0.63672648  0.67435085  1.0
  O  O11692  1  0.34919371  0.80339314  0.67435085  1.0
  O  O11693  1  0.34919371  0.97005981  0.67435085  1.0
  O  O11694  1  0.43252704  0.13672648  0.67435085  1.0
  O  O11695  1  0.43252704  0.30339314  0.67435085  1.0
  O  O11696  1  0.43252704  0.47005981  0.67435085  1.0
  O  O11697  1  0.43252704  0.63672648  0.67435085  1.0
  O  O11698  1  0.43252704  0.80339314  0.67435085  1.0
  O  O11699  1  0.43252704  0.97005981  0.67435085  1.0
  O  O11700  1  0.51586037  0.13672648  0.67435085  1.0
  O  O11701  1  0.51586037  0.30339314  0.67435085  1.0
  O  O11702  1  0.51586037  0.47005981  0.67435085  1.0
  O  O11703  1  0.51586037  0.63672648  0.67435085  1.0
  O  O11704  1  0.51586037  0.80339314  0.67435085  1.0
  O  O11705  1  0.51586037  0.97005981  0.67435085  1.0
  O  O11706  1  0.59919371  0.13672648  0.67435085  1.0
  O  O11707  1  0.59919371  0.30339314  0.67435085  1.0
  O  O11708  1  0.59919371  0.47005981  0.67435085  1.0
  O  O11709  1  0.59919371  0.63672648  0.67435085  1.0
  O  O11710  1  0.59919371  0.80339314  0.67435085  1.0
  O  O11711  1  0.59919371  0.97005981  0.67435085  1.0
  O  O11712  1  0.68252704  0.13672648  0.67435085  1.0
  O  O11713  1  0.68252704  0.30339314  0.67435085  1.0
  O  O11714  1  0.68252704  0.47005981  0.67435085  1.0
  O  O11715  1  0.68252704  0.63672648  0.67435085  1.0
  O  O11716  1  0.68252704  0.80339314  0.67435085  1.0
  O  O11717  1  0.68252704  0.97005981  0.67435085  1.0
  O  O11718  1  0.76586037  0.13672648  0.67435085  1.0
  O  O11719  1  0.76586037  0.30339314  0.67435085  1.0
  O  O11720  1  0.76586037  0.47005981  0.67435085  1.0
  O  O11721  1  0.76586037  0.63672648  0.67435085  1.0
  O  O11722  1  0.76586037  0.80339314  0.67435085  1.0
  O  O11723  1  0.76586037  0.97005981  0.67435085  1.0
  O  O11724  1  0.84919371  0.13672648  0.67435085  1.0
  O  O11725  1  0.84919371  0.30339314  0.67435085  1.0
  O  O11726  1  0.84919371  0.47005981  0.67435085  1.0
  O  O11727  1  0.84919371  0.63672648  0.67435085  1.0
  O  O11728  1  0.84919371  0.80339314  0.67435085  1.0
  O  O11729  1  0.84919371  0.97005981  0.67435085  1.0
  O  O11730  1  0.93252704  0.13672648  0.67435085  1.0
  O  O11731  1  0.93252704  0.30339314  0.67435085  1.0
  O  O11732  1  0.93252704  0.47005981  0.67435085  1.0
  O  O11733  1  0.93252704  0.63672648  0.67435085  1.0
  O  O11734  1  0.93252704  0.80339314  0.67435085  1.0
  O  O11735  1  0.93252704  0.97005981  0.67435085  1.0
  O  O11736  1  0.07538418  0.12482172  0.74577942  1.0
  O  O11737  1  0.07538418  0.29148838  0.74577942  1.0
  O  O11738  1  0.07538418  0.45815505  0.74577942  1.0
  O  O11739  1  0.07538418  0.62482172  0.74577942  1.0
  O  O11740  1  0.07538418  0.79148838  0.74577942  1.0
  O  O11741  1  0.07538418  0.95815505  0.74577942  1.0
  O  O11742  1  0.15871751  0.12482172  0.74577942  1.0
  O  O11743  1  0.15871751  0.29148838  0.74577942  1.0
  O  O11744  1  0.15871751  0.45815505  0.74577942  1.0
  O  O11745  1  0.15871751  0.62482172  0.74577942  1.0
  O  O11746  1  0.15871751  0.79148838  0.74577942  1.0
  O  O11747  1  0.15871751  0.95815505  0.74577942  1.0
  O  O11748  1  0.24205085  0.12482172  0.74577942  1.0
  O  O11749  1  0.24205085  0.29148838  0.74577942  1.0
  O  O11750  1  0.24205085  0.45815505  0.74577942  1.0
  O  O11751  1  0.24205085  0.62482172  0.74577942  1.0
  O  O11752  1  0.24205085  0.79148838  0.74577942  1.0
  O  O11753  1  0.24205085  0.95815505  0.74577942  1.0
  O  O11754  1  0.32538418  0.12482172  0.74577942  1.0
  O  O11755  1  0.32538418  0.29148838  0.74577942  1.0
  O  O11756  1  0.32538418  0.45815505  0.74577942  1.0
  O  O11757  1  0.32538418  0.62482172  0.74577942  1.0
  O  O11758  1  0.32538418  0.79148838  0.74577942  1.0
  O  O11759  1  0.32538418  0.95815505  0.74577942  1.0
  O  O11760  1  0.40871751  0.12482172  0.74577942  1.0
  O  O11761  1  0.40871751  0.29148838  0.74577942  1.0
  O  O11762  1  0.40871751  0.45815505  0.74577942  1.0
  O  O11763  1  0.40871751  0.62482172  0.74577942  1.0
  O  O11764  1  0.40871751  0.79148838  0.74577942  1.0
  O  O11765  1  0.40871751  0.95815505  0.74577942  1.0
  O  O11766  1  0.49205085  0.12482172  0.74577942  1.0
  O  O11767  1  0.49205085  0.29148838  0.74577942  1.0
  O  O11768  1  0.49205085  0.45815505  0.74577942  1.0
  O  O11769  1  0.49205085  0.62482172  0.74577942  1.0
  O  O11770  1  0.49205085  0.79148838  0.74577942  1.0
  O  O11771  1  0.49205085  0.95815505  0.74577942  1.0
  O  O11772  1  0.57538418  0.12482172  0.74577942  1.0
  O  O11773  1  0.57538418  0.29148838  0.74577942  1.0
  O  O11774  1  0.57538418  0.45815505  0.74577942  1.0
  O  O11775  1  0.57538418  0.62482172  0.74577942  1.0
  O  O11776  1  0.57538418  0.79148838  0.74577942  1.0
  O  O11777  1  0.57538418  0.95815505  0.74577942  1.0
  O  O11778  1  0.65871751  0.12482172  0.74577942  1.0
  O  O11779  1  0.65871751  0.29148838  0.74577942  1.0
  O  O11780  1  0.65871751  0.45815505  0.74577942  1.0
  O  O11781  1  0.65871751  0.62482172  0.74577942  1.0
  O  O11782  1  0.65871751  0.79148838  0.74577942  1.0
  O  O11783  1  0.65871751  0.95815505  0.74577942  1.0
  O  O11784  1  0.74205085  0.12482172  0.74577942  1.0
  O  O11785  1  0.74205085  0.29148838  0.74577942  1.0
  O  O11786  1  0.74205085  0.45815505  0.74577942  1.0
  O  O11787  1  0.74205085  0.62482172  0.74577942  1.0
  O  O11788  1  0.74205085  0.79148838  0.74577942  1.0
  O  O11789  1  0.74205085  0.95815505  0.74577942  1.0
  O  O11790  1  0.82538418  0.12482172  0.74577942  1.0
  O  O11791  1  0.82538418  0.29148838  0.74577942  1.0
  O  O11792  1  0.82538418  0.45815505  0.74577942  1.0
  O  O11793  1  0.82538418  0.62482172  0.74577942  1.0
  O  O11794  1  0.82538418  0.79148838  0.74577942  1.0
  O  O11795  1  0.82538418  0.95815505  0.74577942  1.0
  O  O11796  1  0.90871751  0.12482172  0.74577942  1.0
  O  O11797  1  0.90871751  0.29148838  0.74577942  1.0
  O  O11798  1  0.90871751  0.45815505  0.74577942  1.0
  O  O11799  1  0.90871751  0.62482172  0.74577942  1.0
  O  O11800  1  0.90871751  0.79148838  0.74577942  1.0
  O  O11801  1  0.90871751  0.95815505  0.74577942  1.0
  O  O11802  1  0.99205085  0.12482172  0.74577942  1.0
  O  O11803  1  0.99205085  0.29148838  0.74577942  1.0
  O  O11804  1  0.99205085  0.45815505  0.74577942  1.0
  O  O11805  1  0.99205085  0.62482172  0.74577942  1.0
  O  O11806  1  0.99205085  0.79148838  0.74577942  1.0
  O  O11807  1  0.99205085  0.95815505  0.74577942  1.0
  O  O11808  1  0.02015960  0.09190417  0.66360418  1.0
  O  O11809  1  0.02015960  0.25857084  0.66360418  1.0
  O  O11810  1  0.02015960  0.42523750  0.66360418  1.0
  O  O11811  1  0.02015960  0.59190417  0.66360418  1.0
  O  O11812  1  0.02015960  0.75857084  0.66360418  1.0
  O  O11813  1  0.02015960  0.92523750  0.66360418  1.0
  O  O11814  1  0.10349293  0.09190417  0.66360418  1.0
  O  O11815  1  0.10349293  0.25857084  0.66360418  1.0
  O  O11816  1  0.10349293  0.42523750  0.66360418  1.0
  O  O11817  1  0.10349293  0.59190417  0.66360418  1.0
  O  O11818  1  0.10349293  0.75857084  0.66360418  1.0
  O  O11819  1  0.10349293  0.92523750  0.66360418  1.0
  O  O11820  1  0.18682627  0.09190417  0.66360418  1.0
  O  O11821  1  0.18682627  0.25857084  0.66360418  1.0
  O  O11822  1  0.18682627  0.42523750  0.66360418  1.0
  O  O11823  1  0.18682627  0.59190417  0.66360418  1.0
  O  O11824  1  0.18682627  0.75857084  0.66360418  1.0
  O  O11825  1  0.18682627  0.92523750  0.66360418  1.0
  O  O11826  1  0.27015960  0.09190417  0.66360418  1.0
  O  O11827  1  0.27015960  0.25857084  0.66360418  1.0
  O  O11828  1  0.27015960  0.42523750  0.66360418  1.0
  O  O11829  1  0.27015960  0.59190417  0.66360418  1.0
  O  O11830  1  0.27015960  0.75857084  0.66360418  1.0
  O  O11831  1  0.27015960  0.92523750  0.66360418  1.0
  O  O11832  1  0.35349293  0.09190417  0.66360418  1.0
  O  O11833  1  0.35349293  0.25857084  0.66360418  1.0
  O  O11834  1  0.35349293  0.42523750  0.66360418  1.0
  O  O11835  1  0.35349293  0.59190417  0.66360418  1.0
  O  O11836  1  0.35349293  0.75857084  0.66360418  1.0
  O  O11837  1  0.35349293  0.92523750  0.66360418  1.0
  O  O11838  1  0.43682627  0.09190417  0.66360418  1.0
  O  O11839  1  0.43682627  0.25857084  0.66360418  1.0
  O  O11840  1  0.43682627  0.42523750  0.66360418  1.0
  O  O11841  1  0.43682627  0.59190417  0.66360418  1.0
  O  O11842  1  0.43682627  0.75857084  0.66360418  1.0
  O  O11843  1  0.43682627  0.92523750  0.66360418  1.0
  O  O11844  1  0.52015960  0.09190417  0.66360418  1.0
  O  O11845  1  0.52015960  0.25857084  0.66360418  1.0
  O  O11846  1  0.52015960  0.42523750  0.66360418  1.0
  O  O11847  1  0.52015960  0.59190417  0.66360418  1.0
  O  O11848  1  0.52015960  0.75857084  0.66360418  1.0
  O  O11849  1  0.52015960  0.92523750  0.66360418  1.0
  O  O11850  1  0.60349293  0.09190417  0.66360418  1.0
  O  O11851  1  0.60349293  0.25857084  0.66360418  1.0
  O  O11852  1  0.60349293  0.42523750  0.66360418  1.0
  O  O11853  1  0.60349293  0.59190417  0.66360418  1.0
  O  O11854  1  0.60349293  0.75857084  0.66360418  1.0
  O  O11855  1  0.60349293  0.92523750  0.66360418  1.0
  O  O11856  1  0.68682627  0.09190417  0.66360418  1.0
  O  O11857  1  0.68682627  0.25857084  0.66360418  1.0
  O  O11858  1  0.68682627  0.42523750  0.66360418  1.0
  O  O11859  1  0.68682627  0.59190417  0.66360418  1.0
  O  O11860  1  0.68682627  0.75857084  0.66360418  1.0
  O  O11861  1  0.68682627  0.92523750  0.66360418  1.0
  O  O11862  1  0.77015960  0.09190417  0.66360418  1.0
  O  O11863  1  0.77015960  0.25857084  0.66360418  1.0
  O  O11864  1  0.77015960  0.42523750  0.66360418  1.0
  O  O11865  1  0.77015960  0.59190417  0.66360418  1.0
  O  O11866  1  0.77015960  0.75857084  0.66360418  1.0
  O  O11867  1  0.77015960  0.92523750  0.66360418  1.0
  O  O11868  1  0.85349293  0.09190417  0.66360418  1.0
  O  O11869  1  0.85349293  0.25857084  0.66360418  1.0
  O  O11870  1  0.85349293  0.42523750  0.66360418  1.0
  O  O11871  1  0.85349293  0.59190417  0.66360418  1.0
  O  O11872  1  0.85349293  0.75857084  0.66360418  1.0
  O  O11873  1  0.85349293  0.92523750  0.66360418  1.0
  O  O11874  1  0.93682627  0.09190417  0.66360418  1.0
  O  O11875  1  0.93682627  0.25857084  0.66360418  1.0
  O  O11876  1  0.93682627  0.42523750  0.66360418  1.0
  O  O11877  1  0.93682627  0.59190417  0.66360418  1.0
  O  O11878  1  0.93682627  0.75857084  0.66360418  1.0
  O  O11879  1  0.93682627  0.92523750  0.66360418  1.0
  O  O11880  1  0.07968341  0.07999941  0.73503275  1.0
  O  O11881  1  0.07968341  0.24666607  0.73503275  1.0
  O  O11882  1  0.07968341  0.41333274  0.73503275  1.0
  O  O11883  1  0.07968341  0.57999941  0.73503275  1.0
  O  O11884  1  0.07968341  0.74666607  0.73503275  1.0
  O  O11885  1  0.07968341  0.91333274  0.73503275  1.0
  O  O11886  1  0.16301674  0.07999941  0.73503275  1.0
  O  O11887  1  0.16301674  0.24666607  0.73503275  1.0
  O  O11888  1  0.16301674  0.41333274  0.73503275  1.0
  O  O11889  1  0.16301674  0.57999941  0.73503275  1.0
  O  O11890  1  0.16301674  0.74666607  0.73503275  1.0
  O  O11891  1  0.16301674  0.91333274  0.73503275  1.0
  O  O11892  1  0.24635008  0.07999941  0.73503275  1.0
  O  O11893  1  0.24635008  0.24666607  0.73503275  1.0
  O  O11894  1  0.24635008  0.41333274  0.73503275  1.0
  O  O11895  1  0.24635008  0.57999941  0.73503275  1.0
  O  O11896  1  0.24635008  0.74666607  0.73503275  1.0
  O  O11897  1  0.24635008  0.91333274  0.73503275  1.0
  O  O11898  1  0.32968341  0.07999941  0.73503275  1.0
  O  O11899  1  0.32968341  0.24666607  0.73503275  1.0
  O  O11900  1  0.32968341  0.41333274  0.73503275  1.0
  O  O11901  1  0.32968341  0.57999941  0.73503275  1.0
  O  O11902  1  0.32968341  0.74666607  0.73503275  1.0
  O  O11903  1  0.32968341  0.91333274  0.73503275  1.0
  O  O11904  1  0.41301674  0.07999941  0.73503275  1.0
  O  O11905  1  0.41301674  0.24666607  0.73503275  1.0
  O  O11906  1  0.41301674  0.41333274  0.73503275  1.0
  O  O11907  1  0.41301674  0.57999941  0.73503275  1.0
  O  O11908  1  0.41301674  0.74666607  0.73503275  1.0
  O  O11909  1  0.41301674  0.91333274  0.73503275  1.0
  O  O11910  1  0.49635008  0.07999941  0.73503275  1.0
  O  O11911  1  0.49635008  0.24666607  0.73503275  1.0
  O  O11912  1  0.49635008  0.41333274  0.73503275  1.0
  O  O11913  1  0.49635008  0.57999941  0.73503275  1.0
  O  O11914  1  0.49635008  0.74666607  0.73503275  1.0
  O  O11915  1  0.49635008  0.91333274  0.73503275  1.0
  O  O11916  1  0.57968341  0.07999941  0.73503275  1.0
  O  O11917  1  0.57968341  0.24666607  0.73503275  1.0
  O  O11918  1  0.57968341  0.41333274  0.73503275  1.0
  O  O11919  1  0.57968341  0.57999941  0.73503275  1.0
  O  O11920  1  0.57968341  0.74666607  0.73503275  1.0
  O  O11921  1  0.57968341  0.91333274  0.73503275  1.0
  O  O11922  1  0.66301674  0.07999941  0.73503275  1.0
  O  O11923  1  0.66301674  0.24666607  0.73503275  1.0
  O  O11924  1  0.66301674  0.41333274  0.73503275  1.0
  O  O11925  1  0.66301674  0.57999941  0.73503275  1.0
  O  O11926  1  0.66301674  0.74666607  0.73503275  1.0
  O  O11927  1  0.66301674  0.91333274  0.73503275  1.0
  O  O11928  1  0.74635008  0.07999941  0.73503275  1.0
  O  O11929  1  0.74635008  0.24666607  0.73503275  1.0
  O  O11930  1  0.74635008  0.41333274  0.73503275  1.0
  O  O11931  1  0.74635008  0.57999941  0.73503275  1.0
  O  O11932  1  0.74635008  0.74666607  0.73503275  1.0
  O  O11933  1  0.74635008  0.91333274  0.73503275  1.0
  O  O11934  1  0.82968341  0.07999941  0.73503275  1.0
  O  O11935  1  0.82968341  0.24666607  0.73503275  1.0
  O  O11936  1  0.82968341  0.41333274  0.73503275  1.0
  O  O11937  1  0.82968341  0.57999941  0.73503275  1.0
  O  O11938  1  0.82968341  0.74666607  0.73503275  1.0
  O  O11939  1  0.82968341  0.91333274  0.73503275  1.0
  O  O11940  1  0.91301674  0.07999941  0.73503275  1.0
  O  O11941  1  0.91301674  0.24666607  0.73503275  1.0
  O  O11942  1  0.91301674  0.41333274  0.73503275  1.0
  O  O11943  1  0.91301674  0.57999941  0.73503275  1.0
  O  O11944  1  0.91301674  0.74666607  0.73503275  1.0
  O  O11945  1  0.91301674  0.91333274  0.73503275  1.0
  O  O11946  1  0.99635008  0.07999941  0.73503275  1.0
  O  O11947  1  0.99635008  0.24666607  0.73503275  1.0
  O  O11948  1  0.99635008  0.41333274  0.73503275  1.0
  O  O11949  1  0.99635008  0.57999941  0.73503275  1.0
  O  O11950  1  0.99635008  0.74666607  0.73503275  1.0
  O  O11951  1  0.99635008  0.91333274  0.73503275  1.0
  O  O11952  1  0.05636493  0.15934939  0.67931064  1.0
  O  O11953  1  0.05636493  0.32601605  0.67931064  1.0
  O  O11954  1  0.05636493  0.49268272  0.67931064  1.0
  O  O11955  1  0.05636493  0.65934939  0.67931064  1.0
  O  O11956  1  0.05636493  0.82601605  0.67931064  1.0
  O  O11957  1  0.05636493  0.99268272  0.67931064  1.0
  O  O11958  1  0.13969826  0.15934939  0.67931064  1.0
  O  O11959  1  0.13969826  0.32601605  0.67931064  1.0
  O  O11960  1  0.13969826  0.49268272  0.67931064  1.0
  O  O11961  1  0.13969826  0.65934939  0.67931064  1.0
  O  O11962  1  0.13969826  0.82601605  0.67931064  1.0
  O  O11963  1  0.13969826  0.99268272  0.67931064  1.0
  O  O11964  1  0.22303159  0.15934939  0.67931064  1.0
  O  O11965  1  0.22303159  0.32601605  0.67931064  1.0
  O  O11966  1  0.22303159  0.49268272  0.67931064  1.0
  O  O11967  1  0.22303159  0.65934939  0.67931064  1.0
  O  O11968  1  0.22303159  0.82601605  0.67931064  1.0
  O  O11969  1  0.22303159  0.99268272  0.67931064  1.0
  O  O11970  1  0.30636493  0.15934939  0.67931064  1.0
  O  O11971  1  0.30636493  0.32601605  0.67931064  1.0
  O  O11972  1  0.30636493  0.49268272  0.67931064  1.0
  O  O11973  1  0.30636493  0.65934939  0.67931064  1.0
  O  O11974  1  0.30636493  0.82601605  0.67931064  1.0
  O  O11975  1  0.30636493  0.99268272  0.67931064  1.0
  O  O11976  1  0.38969826  0.15934939  0.67931064  1.0
  O  O11977  1  0.38969826  0.32601605  0.67931064  1.0
  O  O11978  1  0.38969826  0.49268272  0.67931064  1.0
  O  O11979  1  0.38969826  0.65934939  0.67931064  1.0
  O  O11980  1  0.38969826  0.82601605  0.67931064  1.0
  O  O11981  1  0.38969826  0.99268272  0.67931064  1.0
  O  O11982  1  0.47303159  0.15934939  0.67931064  1.0
  O  O11983  1  0.47303159  0.32601605  0.67931064  1.0
  O  O11984  1  0.47303159  0.49268272  0.67931064  1.0
  O  O11985  1  0.47303159  0.65934939  0.67931064  1.0
  O  O11986  1  0.47303159  0.82601605  0.67931064  1.0
  O  O11987  1  0.47303159  0.99268272  0.67931064  1.0
  O  O11988  1  0.55636493  0.15934939  0.67931064  1.0
  O  O11989  1  0.55636493  0.32601605  0.67931064  1.0
  O  O11990  1  0.55636493  0.49268272  0.67931064  1.0
  O  O11991  1  0.55636493  0.65934939  0.67931064  1.0
  O  O11992  1  0.55636493  0.82601605  0.67931064  1.0
  O  O11993  1  0.55636493  0.99268272  0.67931064  1.0
  O  O11994  1  0.63969826  0.15934939  0.67931064  1.0
  O  O11995  1  0.63969826  0.32601605  0.67931064  1.0
  O  O11996  1  0.63969826  0.49268272  0.67931064  1.0
  O  O11997  1  0.63969826  0.65934939  0.67931064  1.0
  O  O11998  1  0.63969826  0.82601605  0.67931064  1.0
  O  O11999  1  0.63969826  0.99268272  0.67931064  1.0
  O  O12000  1  0.72303159  0.15934939  0.67931064  1.0
  O  O12001  1  0.72303159  0.32601605  0.67931064  1.0
  O  O12002  1  0.72303159  0.49268272  0.67931064  1.0
  O  O12003  1  0.72303159  0.65934939  0.67931064  1.0
  O  O12004  1  0.72303159  0.82601605  0.67931064  1.0
  O  O12005  1  0.72303159  0.99268272  0.67931064  1.0
  O  O12006  1  0.80636493  0.15934939  0.67931064  1.0
  O  O12007  1  0.80636493  0.32601605  0.67931064  1.0
  O  O12008  1  0.80636493  0.49268272  0.67931064  1.0
  O  O12009  1  0.80636493  0.65934939  0.67931064  1.0
  O  O12010  1  0.80636493  0.82601605  0.67931064  1.0
  O  O12011  1  0.80636493  0.99268272  0.67931064  1.0
  O  O12012  1  0.88969826  0.15934939  0.67931064  1.0
  O  O12013  1  0.88969826  0.32601605  0.67931064  1.0
  O  O12014  1  0.88969826  0.49268272  0.67931064  1.0
  O  O12015  1  0.88969826  0.65934939  0.67931064  1.0
  O  O12016  1  0.88969826  0.82601605  0.67931064  1.0
  O  O12017  1  0.88969826  0.99268272  0.67931064  1.0
  O  O12018  1  0.97303159  0.15934939  0.67931064  1.0
  O  O12019  1  0.97303159  0.32601605  0.67931064  1.0
  O  O12020  1  0.97303159  0.49268272  0.67931064  1.0
  O  O12021  1  0.97303159  0.65934939  0.67931064  1.0
  O  O12022  1  0.97303159  0.82601605  0.67931064  1.0
  O  O12023  1  0.97303159  0.99268272  0.67931064  1.0
  O  O12024  1  0.03255540  0.14744462  0.75073921  1.0
  O  O12025  1  0.03255540  0.31411129  0.75073921  1.0
  O  O12026  1  0.03255540  0.48077796  0.75073921  1.0
  O  O12027  1  0.03255540  0.64744462  0.75073921  1.0
  O  O12028  1  0.03255540  0.81411129  0.75073921  1.0
  O  O12029  1  0.03255540  0.98077796  0.75073921  1.0
  O  O12030  1  0.11588874  0.14744462  0.75073921  1.0
  O  O12031  1  0.11588874  0.31411129  0.75073921  1.0
  O  O12032  1  0.11588874  0.48077796  0.75073921  1.0
  O  O12033  1  0.11588874  0.64744462  0.75073921  1.0
  O  O12034  1  0.11588874  0.81411129  0.75073921  1.0
  O  O12035  1  0.11588874  0.98077796  0.75073921  1.0
  O  O12036  1  0.19922207  0.14744462  0.75073921  1.0
  O  O12037  1  0.19922207  0.31411129  0.75073921  1.0
  O  O12038  1  0.19922207  0.48077796  0.75073921  1.0
  O  O12039  1  0.19922207  0.64744462  0.75073921  1.0
  O  O12040  1  0.19922207  0.81411129  0.75073921  1.0
  O  O12041  1  0.19922207  0.98077796  0.75073921  1.0
  O  O12042  1  0.28255540  0.14744462  0.75073921  1.0
  O  O12043  1  0.28255540  0.31411129  0.75073921  1.0
  O  O12044  1  0.28255540  0.48077796  0.75073921  1.0
  O  O12045  1  0.28255540  0.64744462  0.75073921  1.0
  O  O12046  1  0.28255540  0.81411129  0.75073921  1.0
  O  O12047  1  0.28255540  0.98077796  0.75073921  1.0
  O  O12048  1  0.36588874  0.14744462  0.75073921  1.0
  O  O12049  1  0.36588874  0.31411129  0.75073921  1.0
  O  O12050  1  0.36588874  0.48077796  0.75073921  1.0
  O  O12051  1  0.36588874  0.64744462  0.75073921  1.0
  O  O12052  1  0.36588874  0.81411129  0.75073921  1.0
  O  O12053  1  0.36588874  0.98077796  0.75073921  1.0
  O  O12054  1  0.44922207  0.14744462  0.75073921  1.0
  O  O12055  1  0.44922207  0.31411129  0.75073921  1.0
  O  O12056  1  0.44922207  0.48077796  0.75073921  1.0
  O  O12057  1  0.44922207  0.64744462  0.75073921  1.0
  O  O12058  1  0.44922207  0.81411129  0.75073921  1.0
  O  O12059  1  0.44922207  0.98077796  0.75073921  1.0
  O  O12060  1  0.53255540  0.14744462  0.75073921  1.0
  O  O12061  1  0.53255540  0.31411129  0.75073921  1.0
  O  O12062  1  0.53255540  0.48077796  0.75073921  1.0
  O  O12063  1  0.53255540  0.64744462  0.75073921  1.0
  O  O12064  1  0.53255540  0.81411129  0.75073921  1.0
  O  O12065  1  0.53255540  0.98077796  0.75073921  1.0
  O  O12066  1  0.61588874  0.14744462  0.75073921  1.0
  O  O12067  1  0.61588874  0.31411129  0.75073921  1.0
  O  O12068  1  0.61588874  0.48077796  0.75073921  1.0
  O  O12069  1  0.61588874  0.64744462  0.75073921  1.0
  O  O12070  1  0.61588874  0.81411129  0.75073921  1.0
  O  O12071  1  0.61588874  0.98077796  0.75073921  1.0
  O  O12072  1  0.69922207  0.14744462  0.75073921  1.0
  O  O12073  1  0.69922207  0.31411129  0.75073921  1.0
  O  O12074  1  0.69922207  0.48077796  0.75073921  1.0
  O  O12075  1  0.69922207  0.64744462  0.75073921  1.0
  O  O12076  1  0.69922207  0.81411129  0.75073921  1.0
  O  O12077  1  0.69922207  0.98077796  0.75073921  1.0
  O  O12078  1  0.78255540  0.14744462  0.75073921  1.0
  O  O12079  1  0.78255540  0.31411129  0.75073921  1.0
  O  O12080  1  0.78255540  0.48077796  0.75073921  1.0
  O  O12081  1  0.78255540  0.64744462  0.75073921  1.0
  O  O12082  1  0.78255540  0.81411129  0.75073921  1.0
  O  O12083  1  0.78255540  0.98077796  0.75073921  1.0
  O  O12084  1  0.86588874  0.14744462  0.75073921  1.0
  O  O12085  1  0.86588874  0.31411129  0.75073921  1.0
  O  O12086  1  0.86588874  0.48077796  0.75073921  1.0
  O  O12087  1  0.86588874  0.64744462  0.75073921  1.0
  O  O12088  1  0.86588874  0.81411129  0.75073921  1.0
  O  O12089  1  0.86588874  0.98077796  0.75073921  1.0
  O  O12090  1  0.94922207  0.14744462  0.75073921  1.0
  O  O12091  1  0.94922207  0.31411129  0.75073921  1.0
  O  O12092  1  0.94922207  0.48077796  0.75073921  1.0
  O  O12093  1  0.94922207  0.64744462  0.75073921  1.0
  O  O12094  1  0.94922207  0.81411129  0.75073921  1.0
  O  O12095  1  0.94922207  0.98077796  0.75073921  1.0
  O  O12096  1  0.05919764  0.11438988  0.66991452  1.0
  O  O12097  1  0.05919764  0.28105655  0.66991452  1.0
  O  O12098  1  0.05919764  0.44772322  0.66991452  1.0
  O  O12099  1  0.05919764  0.61438988  0.66991452  1.0
  O  O12100  1  0.05919764  0.78105655  0.66991452  1.0
  O  O12101  1  0.05919764  0.94772322  0.66991452  1.0
  O  O12102  1  0.14253097  0.11438988  0.66991452  1.0
  O  O12103  1  0.14253097  0.28105655  0.66991452  1.0
  O  O12104  1  0.14253097  0.44772322  0.66991452  1.0
  O  O12105  1  0.14253097  0.61438988  0.66991452  1.0
  O  O12106  1  0.14253097  0.78105655  0.66991452  1.0
  O  O12107  1  0.14253097  0.94772322  0.66991452  1.0
  O  O12108  1  0.22586430  0.11438988  0.66991452  1.0
  O  O12109  1  0.22586430  0.28105655  0.66991452  1.0
  O  O12110  1  0.22586430  0.44772322  0.66991452  1.0
  O  O12111  1  0.22586430  0.61438988  0.66991452  1.0
  O  O12112  1  0.22586430  0.78105655  0.66991452  1.0
  O  O12113  1  0.22586430  0.94772322  0.66991452  1.0
  O  O12114  1  0.30919764  0.11438988  0.66991452  1.0
  O  O12115  1  0.30919764  0.28105655  0.66991452  1.0
  O  O12116  1  0.30919764  0.44772322  0.66991452  1.0
  O  O12117  1  0.30919764  0.61438988  0.66991452  1.0
  O  O12118  1  0.30919764  0.78105655  0.66991452  1.0
  O  O12119  1  0.30919764  0.94772322  0.66991452  1.0
  O  O12120  1  0.39253097  0.11438988  0.66991452  1.0
  O  O12121  1  0.39253097  0.28105655  0.66991452  1.0
  O  O12122  1  0.39253097  0.44772322  0.66991452  1.0
  O  O12123  1  0.39253097  0.61438988  0.66991452  1.0
  O  O12124  1  0.39253097  0.78105655  0.66991452  1.0
  O  O12125  1  0.39253097  0.94772322  0.66991452  1.0
  O  O12126  1  0.47586430  0.11438988  0.66991452  1.0
  O  O12127  1  0.47586430  0.28105655  0.66991452  1.0
  O  O12128  1  0.47586430  0.44772322  0.66991452  1.0
  O  O12129  1  0.47586430  0.61438988  0.66991452  1.0
  O  O12130  1  0.47586430  0.78105655  0.66991452  1.0
  O  O12131  1  0.47586430  0.94772322  0.66991452  1.0
  O  O12132  1  0.55919764  0.11438988  0.66991452  1.0
  O  O12133  1  0.55919764  0.28105655  0.66991452  1.0
  O  O12134  1  0.55919764  0.44772322  0.66991452  1.0
  O  O12135  1  0.55919764  0.61438988  0.66991452  1.0
  O  O12136  1  0.55919764  0.78105655  0.66991452  1.0
  O  O12137  1  0.55919764  0.94772322  0.66991452  1.0
  O  O12138  1  0.64253097  0.11438988  0.66991452  1.0
  O  O12139  1  0.64253097  0.28105655  0.66991452  1.0
  O  O12140  1  0.64253097  0.44772322  0.66991452  1.0
  O  O12141  1  0.64253097  0.61438988  0.66991452  1.0
  O  O12142  1  0.64253097  0.78105655  0.66991452  1.0
  O  O12143  1  0.64253097  0.94772322  0.66991452  1.0
  O  O12144  1  0.72586430  0.11438988  0.66991452  1.0
  O  O12145  1  0.72586430  0.28105655  0.66991452  1.0
  O  O12146  1  0.72586430  0.44772322  0.66991452  1.0
  O  O12147  1  0.72586430  0.61438988  0.66991452  1.0
  O  O12148  1  0.72586430  0.78105655  0.66991452  1.0
  O  O12149  1  0.72586430  0.94772322  0.66991452  1.0
  O  O12150  1  0.80919764  0.11438988  0.66991452  1.0
  O  O12151  1  0.80919764  0.28105655  0.66991452  1.0
  O  O12152  1  0.80919764  0.44772322  0.66991452  1.0
  O  O12153  1  0.80919764  0.61438988  0.66991452  1.0
  O  O12154  1  0.80919764  0.78105655  0.66991452  1.0
  O  O12155  1  0.80919764  0.94772322  0.66991452  1.0
  O  O12156  1  0.89253097  0.11438988  0.66991452  1.0
  O  O12157  1  0.89253097  0.28105655  0.66991452  1.0
  O  O12158  1  0.89253097  0.44772322  0.66991452  1.0
  O  O12159  1  0.89253097  0.61438988  0.66991452  1.0
  O  O12160  1  0.89253097  0.78105655  0.66991452  1.0
  O  O12161  1  0.89253097  0.94772322  0.66991452  1.0
  O  O12162  1  0.97586430  0.11438988  0.66991452  1.0
  O  O12163  1  0.97586430  0.28105655  0.66991452  1.0
  O  O12164  1  0.97586430  0.44772322  0.66991452  1.0
  O  O12165  1  0.97586430  0.61438988  0.66991452  1.0
  O  O12166  1  0.97586430  0.78105655  0.66991452  1.0
  O  O12167  1  0.97586430  0.94772322  0.66991452  1.0
  O  O12168  1  0.03538811  0.10248512  0.74134310  1.0
  O  O12169  1  0.03538811  0.26915179  0.74134310  1.0
  O  O12170  1  0.03538811  0.43581845  0.74134310  1.0
  O  O12171  1  0.03538811  0.60248512  0.74134310  1.0
  O  O12172  1  0.03538811  0.76915179  0.74134310  1.0
  O  O12173  1  0.03538811  0.93581845  0.74134310  1.0
  O  O12174  1  0.11872145  0.10248512  0.74134310  1.0
  O  O12175  1  0.11872145  0.26915179  0.74134310  1.0
  O  O12176  1  0.11872145  0.43581845  0.74134310  1.0
  O  O12177  1  0.11872145  0.60248512  0.74134310  1.0
  O  O12178  1  0.11872145  0.76915179  0.74134310  1.0
  O  O12179  1  0.11872145  0.93581845  0.74134310  1.0
  O  O12180  1  0.20205478  0.10248512  0.74134310  1.0
  O  O12181  1  0.20205478  0.26915179  0.74134310  1.0
  O  O12182  1  0.20205478  0.43581845  0.74134310  1.0
  O  O12183  1  0.20205478  0.60248512  0.74134310  1.0
  O  O12184  1  0.20205478  0.76915179  0.74134310  1.0
  O  O12185  1  0.20205478  0.93581845  0.74134310  1.0
  O  O12186  1  0.28538811  0.10248512  0.74134310  1.0
  O  O12187  1  0.28538811  0.26915179  0.74134310  1.0
  O  O12188  1  0.28538811  0.43581845  0.74134310  1.0
  O  O12189  1  0.28538811  0.60248512  0.74134310  1.0
  O  O12190  1  0.28538811  0.76915179  0.74134310  1.0
  O  O12191  1  0.28538811  0.93581845  0.74134310  1.0
  O  O12192  1  0.36872145  0.10248512  0.74134310  1.0
  O  O12193  1  0.36872145  0.26915179  0.74134310  1.0
  O  O12194  1  0.36872145  0.43581845  0.74134310  1.0
  O  O12195  1  0.36872145  0.60248512  0.74134310  1.0
  O  O12196  1  0.36872145  0.76915179  0.74134310  1.0
  O  O12197  1  0.36872145  0.93581845  0.74134310  1.0
  O  O12198  1  0.45205478  0.10248512  0.74134310  1.0
  O  O12199  1  0.45205478  0.26915179  0.74134310  1.0
  O  O12200  1  0.45205478  0.43581845  0.74134310  1.0
  O  O12201  1  0.45205478  0.60248512  0.74134310  1.0
  O  O12202  1  0.45205478  0.76915179  0.74134310  1.0
  O  O12203  1  0.45205478  0.93581845  0.74134310  1.0
  O  O12204  1  0.53538811  0.10248512  0.74134310  1.0
  O  O12205  1  0.53538811  0.26915179  0.74134310  1.0
  O  O12206  1  0.53538811  0.43581845  0.74134310  1.0
  O  O12207  1  0.53538811  0.60248512  0.74134310  1.0
  O  O12208  1  0.53538811  0.76915179  0.74134310  1.0
  O  O12209  1  0.53538811  0.93581845  0.74134310  1.0
  O  O12210  1  0.61872145  0.10248512  0.74134310  1.0
  O  O12211  1  0.61872145  0.26915179  0.74134310  1.0
  O  O12212  1  0.61872145  0.43581845  0.74134310  1.0
  O  O12213  1  0.61872145  0.60248512  0.74134310  1.0
  O  O12214  1  0.61872145  0.76915179  0.74134310  1.0
  O  O12215  1  0.61872145  0.93581845  0.74134310  1.0
  O  O12216  1  0.70205478  0.10248512  0.74134310  1.0
  O  O12217  1  0.70205478  0.26915179  0.74134310  1.0
  O  O12218  1  0.70205478  0.43581845  0.74134310  1.0
  O  O12219  1  0.70205478  0.60248512  0.74134310  1.0
  O  O12220  1  0.70205478  0.76915179  0.74134310  1.0
  O  O12221  1  0.70205478  0.93581845  0.74134310  1.0
  O  O12222  1  0.78538811  0.10248512  0.74134310  1.0
  O  O12223  1  0.78538811  0.26915179  0.74134310  1.0
  O  O12224  1  0.78538811  0.43581845  0.74134310  1.0
  O  O12225  1  0.78538811  0.60248512  0.74134310  1.0
  O  O12226  1  0.78538811  0.76915179  0.74134310  1.0
  O  O12227  1  0.78538811  0.93581845  0.74134310  1.0
  O  O12228  1  0.86872145  0.10248512  0.74134310  1.0
  O  O12229  1  0.86872145  0.26915179  0.74134310  1.0
  O  O12230  1  0.86872145  0.43581845  0.74134310  1.0
  O  O12231  1  0.86872145  0.60248512  0.74134310  1.0
  O  O12232  1  0.86872145  0.76915179  0.74134310  1.0
  O  O12233  1  0.86872145  0.93581845  0.74134310  1.0
  O  O12234  1  0.95205478  0.10248512  0.74134310  1.0
  O  O12235  1  0.95205478  0.26915179  0.74134310  1.0
  O  O12236  1  0.95205478  0.43581845  0.74134310  1.0
  O  O12237  1  0.95205478  0.60248512  0.74134310  1.0
  O  O12238  1  0.95205478  0.76915179  0.74134310  1.0
  O  O12239  1  0.95205478  0.93581845  0.74134310  1.0
  O  O12240  1  0.06463071  0.09725520  0.77661386  1.0
  O  O12241  1  0.06463071  0.26392186  0.77661386  1.0
  O  O12242  1  0.06463071  0.43058853  0.77661386  1.0
  O  O12243  1  0.06463071  0.59725520  0.77661386  1.0
  O  O12244  1  0.06463071  0.76392186  0.77661386  1.0
  O  O12245  1  0.06463071  0.93058853  0.77661386  1.0
  O  O12246  1  0.14796404  0.09725520  0.77661386  1.0
  O  O12247  1  0.14796404  0.26392186  0.77661386  1.0
  O  O12248  1  0.14796404  0.43058853  0.77661386  1.0
  O  O12249  1  0.14796404  0.59725520  0.77661386  1.0
  O  O12250  1  0.14796404  0.76392186  0.77661386  1.0
  O  O12251  1  0.14796404  0.93058853  0.77661386  1.0
  O  O12252  1  0.23129737  0.09725520  0.77661386  1.0
  O  O12253  1  0.23129737  0.26392186  0.77661386  1.0
  O  O12254  1  0.23129737  0.43058853  0.77661386  1.0
  O  O12255  1  0.23129737  0.59725520  0.77661386  1.0
  O  O12256  1  0.23129737  0.76392186  0.77661386  1.0
  O  O12257  1  0.23129737  0.93058853  0.77661386  1.0
  O  O12258  1  0.31463071  0.09725520  0.77661386  1.0
  O  O12259  1  0.31463071  0.26392186  0.77661386  1.0
  O  O12260  1  0.31463071  0.43058853  0.77661386  1.0
  O  O12261  1  0.31463071  0.59725520  0.77661386  1.0
  O  O12262  1  0.31463071  0.76392186  0.77661386  1.0
  O  O12263  1  0.31463071  0.93058853  0.77661386  1.0
  O  O12264  1  0.39796404  0.09725520  0.77661386  1.0
  O  O12265  1  0.39796404  0.26392186  0.77661386  1.0
  O  O12266  1  0.39796404  0.43058853  0.77661386  1.0
  O  O12267  1  0.39796404  0.59725520  0.77661386  1.0
  O  O12268  1  0.39796404  0.76392186  0.77661386  1.0
  O  O12269  1  0.39796404  0.93058853  0.77661386  1.0
  O  O12270  1  0.48129737  0.09725520  0.77661386  1.0
  O  O12271  1  0.48129737  0.26392186  0.77661386  1.0
  O  O12272  1  0.48129737  0.43058853  0.77661386  1.0
  O  O12273  1  0.48129737  0.59725520  0.77661386  1.0
  O  O12274  1  0.48129737  0.76392186  0.77661386  1.0
  O  O12275  1  0.48129737  0.93058853  0.77661386  1.0
  O  O12276  1  0.56463071  0.09725520  0.77661386  1.0
  O  O12277  1  0.56463071  0.26392186  0.77661386  1.0
  O  O12278  1  0.56463071  0.43058853  0.77661386  1.0
  O  O12279  1  0.56463071  0.59725520  0.77661386  1.0
  O  O12280  1  0.56463071  0.76392186  0.77661386  1.0
  O  O12281  1  0.56463071  0.93058853  0.77661386  1.0
  O  O12282  1  0.64796404  0.09725520  0.77661386  1.0
  O  O12283  1  0.64796404  0.26392186  0.77661386  1.0
  O  O12284  1  0.64796404  0.43058853  0.77661386  1.0
  O  O12285  1  0.64796404  0.59725520  0.77661386  1.0
  O  O12286  1  0.64796404  0.76392186  0.77661386  1.0
  O  O12287  1  0.64796404  0.93058853  0.77661386  1.0
  O  O12288  1  0.73129737  0.09725520  0.77661386  1.0
  O  O12289  1  0.73129737  0.26392186  0.77661386  1.0
  O  O12290  1  0.73129737  0.43058853  0.77661386  1.0
  O  O12291  1  0.73129737  0.59725520  0.77661386  1.0
  O  O12292  1  0.73129737  0.76392186  0.77661386  1.0
  O  O12293  1  0.73129737  0.93058853  0.77661386  1.0
  O  O12294  1  0.81463071  0.09725520  0.77661386  1.0
  O  O12295  1  0.81463071  0.26392186  0.77661386  1.0
  O  O12296  1  0.81463071  0.43058853  0.77661386  1.0
  O  O12297  1  0.81463071  0.59725520  0.77661386  1.0
  O  O12298  1  0.81463071  0.76392186  0.77661386  1.0
  O  O12299  1  0.81463071  0.93058853  0.77661386  1.0
  O  O12300  1  0.89796404  0.09725520  0.77661386  1.0
  O  O12301  1  0.89796404  0.26392186  0.77661386  1.0
  O  O12302  1  0.89796404  0.43058853  0.77661386  1.0
  O  O12303  1  0.89796404  0.59725520  0.77661386  1.0
  O  O12304  1  0.89796404  0.76392186  0.77661386  1.0
  O  O12305  1  0.89796404  0.93058853  0.77661386  1.0
  O  O12306  1  0.98129737  0.09725520  0.77661386  1.0
  O  O12307  1  0.98129737  0.26392186  0.77661386  1.0
  O  O12308  1  0.98129737  0.43058853  0.77661386  1.0
  O  O12309  1  0.98129737  0.59725520  0.77661386  1.0
  O  O12310  1  0.98129737  0.76392186  0.77661386  1.0
  O  O12311  1  0.98129737  0.93058853  0.77661386  1.0
  O  O12312  1  0.00510690  0.10915996  0.70518529  1.0
  O  O12313  1  0.00510690  0.27582662  0.70518529  1.0
  O  O12314  1  0.00510690  0.44249329  0.70518529  1.0
  O  O12315  1  0.00510690  0.60915996  0.70518529  1.0
  O  O12316  1  0.00510690  0.77582662  0.70518529  1.0
  O  O12317  1  0.00510690  0.94249329  0.70518529  1.0
  O  O12318  1  0.08844023  0.10915996  0.70518529  1.0
  O  O12319  1  0.08844023  0.27582662  0.70518529  1.0
  O  O12320  1  0.08844023  0.44249329  0.70518529  1.0
  O  O12321  1  0.08844023  0.60915996  0.70518529  1.0
  O  O12322  1  0.08844023  0.77582662  0.70518529  1.0
  O  O12323  1  0.08844023  0.94249329  0.70518529  1.0
  O  O12324  1  0.17177356  0.10915996  0.70518529  1.0
  O  O12325  1  0.17177356  0.27582662  0.70518529  1.0
  O  O12326  1  0.17177356  0.44249329  0.70518529  1.0
  O  O12327  1  0.17177356  0.60915996  0.70518529  1.0
  O  O12328  1  0.17177356  0.77582662  0.70518529  1.0
  O  O12329  1  0.17177356  0.94249329  0.70518529  1.0
  O  O12330  1  0.25510690  0.10915996  0.70518529  1.0
  O  O12331  1  0.25510690  0.27582662  0.70518529  1.0
  O  O12332  1  0.25510690  0.44249329  0.70518529  1.0
  O  O12333  1  0.25510690  0.60915996  0.70518529  1.0
  O  O12334  1  0.25510690  0.77582662  0.70518529  1.0
  O  O12335  1  0.25510690  0.94249329  0.70518529  1.0
  O  O12336  1  0.33844023  0.10915996  0.70518529  1.0
  O  O12337  1  0.33844023  0.27582662  0.70518529  1.0
  O  O12338  1  0.33844023  0.44249329  0.70518529  1.0
  O  O12339  1  0.33844023  0.60915996  0.70518529  1.0
  O  O12340  1  0.33844023  0.77582662  0.70518529  1.0
  O  O12341  1  0.33844023  0.94249329  0.70518529  1.0
  O  O12342  1  0.42177356  0.10915996  0.70518529  1.0
  O  O12343  1  0.42177356  0.27582662  0.70518529  1.0
  O  O12344  1  0.42177356  0.44249329  0.70518529  1.0
  O  O12345  1  0.42177356  0.60915996  0.70518529  1.0
  O  O12346  1  0.42177356  0.77582662  0.70518529  1.0
  O  O12347  1  0.42177356  0.94249329  0.70518529  1.0
  O  O12348  1  0.50510690  0.10915996  0.70518529  1.0
  O  O12349  1  0.50510690  0.27582662  0.70518529  1.0
  O  O12350  1  0.50510690  0.44249329  0.70518529  1.0
  O  O12351  1  0.50510690  0.60915996  0.70518529  1.0
  O  O12352  1  0.50510690  0.77582662  0.70518529  1.0
  O  O12353  1  0.50510690  0.94249329  0.70518529  1.0
  O  O12354  1  0.58844023  0.10915996  0.70518529  1.0
  O  O12355  1  0.58844023  0.27582662  0.70518529  1.0
  O  O12356  1  0.58844023  0.44249329  0.70518529  1.0
  O  O12357  1  0.58844023  0.60915996  0.70518529  1.0
  O  O12358  1  0.58844023  0.77582662  0.70518529  1.0
  O  O12359  1  0.58844023  0.94249329  0.70518529  1.0
  O  O12360  1  0.67177356  0.10915996  0.70518529  1.0
  O  O12361  1  0.67177356  0.27582662  0.70518529  1.0
  O  O12362  1  0.67177356  0.44249329  0.70518529  1.0
  O  O12363  1  0.67177356  0.60915996  0.70518529  1.0
  O  O12364  1  0.67177356  0.77582662  0.70518529  1.0
  O  O12365  1  0.67177356  0.94249329  0.70518529  1.0
  O  O12366  1  0.75510690  0.10915996  0.70518529  1.0
  O  O12367  1  0.75510690  0.27582662  0.70518529  1.0
  O  O12368  1  0.75510690  0.44249329  0.70518529  1.0
  O  O12369  1  0.75510690  0.60915996  0.70518529  1.0
  O  O12370  1  0.75510690  0.77582662  0.70518529  1.0
  O  O12371  1  0.75510690  0.94249329  0.70518529  1.0
  O  O12372  1  0.83844023  0.10915996  0.70518529  1.0
  O  O12373  1  0.83844023  0.27582662  0.70518529  1.0
  O  O12374  1  0.83844023  0.44249329  0.70518529  1.0
  O  O12375  1  0.83844023  0.60915996  0.70518529  1.0
  O  O12376  1  0.83844023  0.77582662  0.70518529  1.0
  O  O12377  1  0.83844023  0.94249329  0.70518529  1.0
  O  O12378  1  0.92177356  0.10915996  0.70518529  1.0
  O  O12379  1  0.92177356  0.27582662  0.70518529  1.0
  O  O12380  1  0.92177356  0.44249329  0.70518529  1.0
  O  O12381  1  0.92177356  0.60915996  0.70518529  1.0
  O  O12382  1  0.92177356  0.77582662  0.70518529  1.0
  O  O12383  1  0.92177356  0.94249329  0.70518529  1.0
  O  O12384  1  0.02608672  0.16602003  0.64315781  1.0
  O  O12385  1  0.02608672  0.33268670  0.64315781  1.0
  O  O12386  1  0.02608672  0.49935336  0.64315781  1.0
  O  O12387  1  0.02608672  0.66602003  0.64315781  1.0
  O  O12388  1  0.02608672  0.83268670  0.64315781  1.0
  O  O12389  1  0.02608672  0.99935336  0.64315781  1.0
  O  O12390  1  0.10942005  0.16602003  0.64315781  1.0
  O  O12391  1  0.10942005  0.33268670  0.64315781  1.0
  O  O12392  1  0.10942005  0.49935336  0.64315781  1.0
  O  O12393  1  0.10942005  0.66602003  0.64315781  1.0
  O  O12394  1  0.10942005  0.83268670  0.64315781  1.0
  O  O12395  1  0.10942005  0.99935336  0.64315781  1.0
  O  O12396  1  0.19275338  0.16602003  0.64315781  1.0
  O  O12397  1  0.19275338  0.33268670  0.64315781  1.0
  O  O12398  1  0.19275338  0.49935336  0.64315781  1.0
  O  O12399  1  0.19275338  0.66602003  0.64315781  1.0
  O  O12400  1  0.19275338  0.83268670  0.64315781  1.0
  O  O12401  1  0.19275338  0.99935336  0.64315781  1.0
  O  O12402  1  0.27608672  0.16602003  0.64315781  1.0
  O  O12403  1  0.27608672  0.33268670  0.64315781  1.0
  O  O12404  1  0.27608672  0.49935336  0.64315781  1.0
  O  O12405  1  0.27608672  0.66602003  0.64315781  1.0
  O  O12406  1  0.27608672  0.83268670  0.64315781  1.0
  O  O12407  1  0.27608672  0.99935336  0.64315781  1.0
  O  O12408  1  0.35942005  0.16602003  0.64315781  1.0
  O  O12409  1  0.35942005  0.33268670  0.64315781  1.0
  O  O12410  1  0.35942005  0.49935336  0.64315781  1.0
  O  O12411  1  0.35942005  0.66602003  0.64315781  1.0
  O  O12412  1  0.35942005  0.83268670  0.64315781  1.0
  O  O12413  1  0.35942005  0.99935336  0.64315781  1.0
  O  O12414  1  0.44275338  0.16602003  0.64315781  1.0
  O  O12415  1  0.44275338  0.33268670  0.64315781  1.0
  O  O12416  1  0.44275338  0.49935336  0.64315781  1.0
  O  O12417  1  0.44275338  0.66602003  0.64315781  1.0
  O  O12418  1  0.44275338  0.83268670  0.64315781  1.0
  O  O12419  1  0.44275338  0.99935336  0.64315781  1.0
  O  O12420  1  0.52608672  0.16602003  0.64315781  1.0
  O  O12421  1  0.52608672  0.33268670  0.64315781  1.0
  O  O12422  1  0.52608672  0.49935336  0.64315781  1.0
  O  O12423  1  0.52608672  0.66602003  0.64315781  1.0
  O  O12424  1  0.52608672  0.83268670  0.64315781  1.0
  O  O12425  1  0.52608672  0.99935336  0.64315781  1.0
  O  O12426  1  0.60942005  0.16602003  0.64315781  1.0
  O  O12427  1  0.60942005  0.33268670  0.64315781  1.0
  O  O12428  1  0.60942005  0.49935336  0.64315781  1.0
  O  O12429  1  0.60942005  0.66602003  0.64315781  1.0
  O  O12430  1  0.60942005  0.83268670  0.64315781  1.0
  O  O12431  1  0.60942005  0.99935336  0.64315781  1.0
  O  O12432  1  0.69275338  0.16602003  0.64315781  1.0
  O  O12433  1  0.69275338  0.33268670  0.64315781  1.0
  O  O12434  1  0.69275338  0.49935336  0.64315781  1.0
  O  O12435  1  0.69275338  0.66602003  0.64315781  1.0
  O  O12436  1  0.69275338  0.83268670  0.64315781  1.0
  O  O12437  1  0.69275338  0.99935336  0.64315781  1.0
  O  O12438  1  0.77608672  0.16602003  0.64315781  1.0
  O  O12439  1  0.77608672  0.33268670  0.64315781  1.0
  O  O12440  1  0.77608672  0.49935336  0.64315781  1.0
  O  O12441  1  0.77608672  0.66602003  0.64315781  1.0
  O  O12442  1  0.77608672  0.83268670  0.64315781  1.0
  O  O12443  1  0.77608672  0.99935336  0.64315781  1.0
  O  O12444  1  0.85942005  0.16602003  0.64315781  1.0
  O  O12445  1  0.85942005  0.33268670  0.64315781  1.0
  O  O12446  1  0.85942005  0.49935336  0.64315781  1.0
  O  O12447  1  0.85942005  0.66602003  0.64315781  1.0
  O  O12448  1  0.85942005  0.83268670  0.64315781  1.0
  O  O12449  1  0.85942005  0.99935336  0.64315781  1.0
  O  O12450  1  0.94275338  0.16602003  0.64315781  1.0
  O  O12451  1  0.94275338  0.33268670  0.64315781  1.0
  O  O12452  1  0.94275338  0.49935336  0.64315781  1.0
  O  O12453  1  0.94275338  0.66602003  0.64315781  1.0
  O  O12454  1  0.94275338  0.83268670  0.64315781  1.0
  O  O12455  1  0.94275338  0.99935336  0.64315781  1.0
  O  O12456  1  0.00227719  0.15411527  0.71458638  1.0
  O  O12457  1  0.00227719  0.32078193  0.71458638  1.0
  O  O12458  1  0.00227719  0.48744860  0.71458638  1.0
  O  O12459  1  0.00227719  0.65411527  0.71458638  1.0
  O  O12460  1  0.00227719  0.82078193  0.71458638  1.0
  O  O12461  1  0.00227719  0.98744860  0.71458638  1.0
  O  O12462  1  0.08561053  0.15411527  0.71458638  1.0
  O  O12463  1  0.08561053  0.32078193  0.71458638  1.0
  O  O12464  1  0.08561053  0.48744860  0.71458638  1.0
  O  O12465  1  0.08561053  0.65411527  0.71458638  1.0
  O  O12466  1  0.08561053  0.82078193  0.71458638  1.0
  O  O12467  1  0.08561053  0.98744860  0.71458638  1.0
  O  O12468  1  0.16894386  0.15411527  0.71458638  1.0
  O  O12469  1  0.16894386  0.32078193  0.71458638  1.0
  O  O12470  1  0.16894386  0.48744860  0.71458638  1.0
  O  O12471  1  0.16894386  0.65411527  0.71458638  1.0
  O  O12472  1  0.16894386  0.82078193  0.71458638  1.0
  O  O12473  1  0.16894386  0.98744860  0.71458638  1.0
  O  O12474  1  0.25227719  0.15411527  0.71458638  1.0
  O  O12475  1  0.25227719  0.32078193  0.71458638  1.0
  O  O12476  1  0.25227719  0.48744860  0.71458638  1.0
  O  O12477  1  0.25227719  0.65411527  0.71458638  1.0
  O  O12478  1  0.25227719  0.82078193  0.71458638  1.0
  O  O12479  1  0.25227719  0.98744860  0.71458638  1.0
  O  O12480  1  0.33561053  0.15411527  0.71458638  1.0
  O  O12481  1  0.33561053  0.32078193  0.71458638  1.0
  O  O12482  1  0.33561053  0.48744860  0.71458638  1.0
  O  O12483  1  0.33561053  0.65411527  0.71458638  1.0
  O  O12484  1  0.33561053  0.82078193  0.71458638  1.0
  O  O12485  1  0.33561053  0.98744860  0.71458638  1.0
  O  O12486  1  0.41894386  0.15411527  0.71458638  1.0
  O  O12487  1  0.41894386  0.32078193  0.71458638  1.0
  O  O12488  1  0.41894386  0.48744860  0.71458638  1.0
  O  O12489  1  0.41894386  0.65411527  0.71458638  1.0
  O  O12490  1  0.41894386  0.82078193  0.71458638  1.0
  O  O12491  1  0.41894386  0.98744860  0.71458638  1.0
  O  O12492  1  0.50227719  0.15411527  0.71458638  1.0
  O  O12493  1  0.50227719  0.32078193  0.71458638  1.0
  O  O12494  1  0.50227719  0.48744860  0.71458638  1.0
  O  O12495  1  0.50227719  0.65411527  0.71458638  1.0
  O  O12496  1  0.50227719  0.82078193  0.71458638  1.0
  O  O12497  1  0.50227719  0.98744860  0.71458638  1.0
  O  O12498  1  0.58561053  0.15411527  0.71458638  1.0
  O  O12499  1  0.58561053  0.32078193  0.71458638  1.0
  O  O12500  1  0.58561053  0.48744860  0.71458638  1.0
  O  O12501  1  0.58561053  0.65411527  0.71458638  1.0
  O  O12502  1  0.58561053  0.82078193  0.71458638  1.0
  O  O12503  1  0.58561053  0.98744860  0.71458638  1.0
  O  O12504  1  0.66894386  0.15411527  0.71458638  1.0
  O  O12505  1  0.66894386  0.32078193  0.71458638  1.0
  O  O12506  1  0.66894386  0.48744860  0.71458638  1.0
  O  O12507  1  0.66894386  0.65411527  0.71458638  1.0
  O  O12508  1  0.66894386  0.82078193  0.71458638  1.0
  O  O12509  1  0.66894386  0.98744860  0.71458638  1.0
  O  O12510  1  0.75227719  0.15411527  0.71458638  1.0
  O  O12511  1  0.75227719  0.32078193  0.71458638  1.0
  O  O12512  1  0.75227719  0.48744860  0.71458638  1.0
  O  O12513  1  0.75227719  0.65411527  0.71458638  1.0
  O  O12514  1  0.75227719  0.82078193  0.71458638  1.0
  O  O12515  1  0.75227719  0.98744860  0.71458638  1.0
  O  O12516  1  0.83561053  0.15411527  0.71458638  1.0
  O  O12517  1  0.83561053  0.32078193  0.71458638  1.0
  O  O12518  1  0.83561053  0.48744860  0.71458638  1.0
  O  O12519  1  0.83561053  0.65411527  0.71458638  1.0
  O  O12520  1  0.83561053  0.82078193  0.71458638  1.0
  O  O12521  1  0.83561053  0.98744860  0.71458638  1.0
  O  O12522  1  0.91894386  0.15411527  0.71458638  1.0
  O  O12523  1  0.91894386  0.32078193  0.71458638  1.0
  O  O12524  1  0.91894386  0.48744860  0.71458638  1.0
  O  O12525  1  0.91894386  0.65411527  0.71458638  1.0
  O  O12526  1  0.91894386  0.82078193  0.71458638  1.0
  O  O12527  1  0.91894386  0.98744860  0.71458638  1.0
  O  O12528  1  0.02354311  0.04592264  0.65518394  1.0
  O  O12529  1  0.02354311  0.21258930  0.65518394  1.0
  O  O12530  1  0.02354311  0.37925597  0.65518394  1.0
  O  O12531  1  0.02354311  0.54592264  0.65518394  1.0
  O  O12532  1  0.02354311  0.71258930  0.65518394  1.0
  O  O12533  1  0.02354311  0.87925597  0.65518394  1.0
  O  O12534  1  0.10687644  0.04592264  0.65518394  1.0
  O  O12535  1  0.10687644  0.21258930  0.65518394  1.0
  O  O12536  1  0.10687644  0.37925597  0.65518394  1.0
  O  O12537  1  0.10687644  0.54592264  0.65518394  1.0
  O  O12538  1  0.10687644  0.71258930  0.65518394  1.0
  O  O12539  1  0.10687644  0.87925597  0.65518394  1.0
  O  O12540  1  0.19020977  0.04592264  0.65518394  1.0
  O  O12541  1  0.19020977  0.21258930  0.65518394  1.0
  O  O12542  1  0.19020977  0.37925597  0.65518394  1.0
  O  O12543  1  0.19020977  0.54592264  0.65518394  1.0
  O  O12544  1  0.19020977  0.71258930  0.65518394  1.0
  O  O12545  1  0.19020977  0.87925597  0.65518394  1.0
  O  O12546  1  0.27354311  0.04592264  0.65518394  1.0
  O  O12547  1  0.27354311  0.21258930  0.65518394  1.0
  O  O12548  1  0.27354311  0.37925597  0.65518394  1.0
  O  O12549  1  0.27354311  0.54592264  0.65518394  1.0
  O  O12550  1  0.27354311  0.71258930  0.65518394  1.0
  O  O12551  1  0.27354311  0.87925597  0.65518394  1.0
  O  O12552  1  0.35687644  0.04592264  0.65518394  1.0
  O  O12553  1  0.35687644  0.21258930  0.65518394  1.0
  O  O12554  1  0.35687644  0.37925597  0.65518394  1.0
  O  O12555  1  0.35687644  0.54592264  0.65518394  1.0
  O  O12556  1  0.35687644  0.71258930  0.65518394  1.0
  O  O12557  1  0.35687644  0.87925597  0.65518394  1.0
  O  O12558  1  0.44020977  0.04592264  0.65518394  1.0
  O  O12559  1  0.44020977  0.21258930  0.65518394  1.0
  O  O12560  1  0.44020977  0.37925597  0.65518394  1.0
  O  O12561  1  0.44020977  0.54592264  0.65518394  1.0
  O  O12562  1  0.44020977  0.71258930  0.65518394  1.0
  O  O12563  1  0.44020977  0.87925597  0.65518394  1.0
  O  O12564  1  0.52354311  0.04592264  0.65518394  1.0
  O  O12565  1  0.52354311  0.21258930  0.65518394  1.0
  O  O12566  1  0.52354311  0.37925597  0.65518394  1.0
  O  O12567  1  0.52354311  0.54592264  0.65518394  1.0
  O  O12568  1  0.52354311  0.71258930  0.65518394  1.0
  O  O12569  1  0.52354311  0.87925597  0.65518394  1.0
  O  O12570  1  0.60687644  0.04592264  0.65518394  1.0
  O  O12571  1  0.60687644  0.21258930  0.65518394  1.0
  O  O12572  1  0.60687644  0.37925597  0.65518394  1.0
  O  O12573  1  0.60687644  0.54592264  0.65518394  1.0
  O  O12574  1  0.60687644  0.71258930  0.65518394  1.0
  O  O12575  1  0.60687644  0.87925597  0.65518394  1.0
  O  O12576  1  0.69020977  0.04592264  0.65518394  1.0
  O  O12577  1  0.69020977  0.21258930  0.65518394  1.0
  O  O12578  1  0.69020977  0.37925597  0.65518394  1.0
  O  O12579  1  0.69020977  0.54592264  0.65518394  1.0
  O  O12580  1  0.69020977  0.71258930  0.65518394  1.0
  O  O12581  1  0.69020977  0.87925597  0.65518394  1.0
  O  O12582  1  0.77354311  0.04592264  0.65518394  1.0
  O  O12583  1  0.77354311  0.21258930  0.65518394  1.0
  O  O12584  1  0.77354311  0.37925597  0.65518394  1.0
  O  O12585  1  0.77354311  0.54592264  0.65518394  1.0
  O  O12586  1  0.77354311  0.71258930  0.65518394  1.0
  O  O12587  1  0.77354311  0.87925597  0.65518394  1.0
  O  O12588  1  0.85687644  0.04592264  0.65518394  1.0
  O  O12589  1  0.85687644  0.21258930  0.65518394  1.0
  O  O12590  1  0.85687644  0.37925597  0.65518394  1.0
  O  O12591  1  0.85687644  0.54592264  0.65518394  1.0
  O  O12592  1  0.85687644  0.71258930  0.65518394  1.0
  O  O12593  1  0.85687644  0.87925597  0.65518394  1.0
  O  O12594  1  0.94020977  0.04592264  0.65518394  1.0
  O  O12595  1  0.94020977  0.21258930  0.65518394  1.0
  O  O12596  1  0.94020977  0.37925597  0.65518394  1.0
  O  O12597  1  0.94020977  0.54592264  0.65518394  1.0
  O  O12598  1  0.94020977  0.71258930  0.65518394  1.0
  O  O12599  1  0.94020977  0.87925597  0.65518394  1.0
  O  O12600  1  0.08306691  0.03401787  0.72661251  1.0
  O  O12601  1  0.08306691  0.20068454  0.72661251  1.0
  O  O12602  1  0.08306691  0.36735121  0.72661251  1.0
  O  O12603  1  0.08306691  0.53401787  0.72661251  1.0
  O  O12604  1  0.08306691  0.70068454  0.72661251  1.0
  O  O12605  1  0.08306691  0.86735121  0.72661251  1.0
  O  O12606  1  0.16640025  0.03401787  0.72661251  1.0
  O  O12607  1  0.16640025  0.20068454  0.72661251  1.0
  O  O12608  1  0.16640025  0.36735121  0.72661251  1.0
  O  O12609  1  0.16640025  0.53401787  0.72661251  1.0
  O  O12610  1  0.16640025  0.70068454  0.72661251  1.0
  O  O12611  1  0.16640025  0.86735121  0.72661251  1.0
  O  O12612  1  0.24973358  0.03401787  0.72661251  1.0
  O  O12613  1  0.24973358  0.20068454  0.72661251  1.0
  O  O12614  1  0.24973358  0.36735121  0.72661251  1.0
  O  O12615  1  0.24973358  0.53401787  0.72661251  1.0
  O  O12616  1  0.24973358  0.70068454  0.72661251  1.0
  O  O12617  1  0.24973358  0.86735121  0.72661251  1.0
  O  O12618  1  0.33306691  0.03401787  0.72661251  1.0
  O  O12619  1  0.33306691  0.20068454  0.72661251  1.0
  O  O12620  1  0.33306691  0.36735121  0.72661251  1.0
  O  O12621  1  0.33306691  0.53401787  0.72661251  1.0
  O  O12622  1  0.33306691  0.70068454  0.72661251  1.0
  O  O12623  1  0.33306691  0.86735121  0.72661251  1.0
  O  O12624  1  0.41640025  0.03401787  0.72661251  1.0
  O  O12625  1  0.41640025  0.20068454  0.72661251  1.0
  O  O12626  1  0.41640025  0.36735121  0.72661251  1.0
  O  O12627  1  0.41640025  0.53401787  0.72661251  1.0
  O  O12628  1  0.41640025  0.70068454  0.72661251  1.0
  O  O12629  1  0.41640025  0.86735121  0.72661251  1.0
  O  O12630  1  0.49973358  0.03401787  0.72661251  1.0
  O  O12631  1  0.49973358  0.20068454  0.72661251  1.0
  O  O12632  1  0.49973358  0.36735121  0.72661251  1.0
  O  O12633  1  0.49973358  0.53401787  0.72661251  1.0
  O  O12634  1  0.49973358  0.70068454  0.72661251  1.0
  O  O12635  1  0.49973358  0.86735121  0.72661251  1.0
  O  O12636  1  0.58306691  0.03401787  0.72661251  1.0
  O  O12637  1  0.58306691  0.20068454  0.72661251  1.0
  O  O12638  1  0.58306691  0.36735121  0.72661251  1.0
  O  O12639  1  0.58306691  0.53401787  0.72661251  1.0
  O  O12640  1  0.58306691  0.70068454  0.72661251  1.0
  O  O12641  1  0.58306691  0.86735121  0.72661251  1.0
  O  O12642  1  0.66640025  0.03401787  0.72661251  1.0
  O  O12643  1  0.66640025  0.20068454  0.72661251  1.0
  O  O12644  1  0.66640025  0.36735121  0.72661251  1.0
  O  O12645  1  0.66640025  0.53401787  0.72661251  1.0
  O  O12646  1  0.66640025  0.70068454  0.72661251  1.0
  O  O12647  1  0.66640025  0.86735121  0.72661251  1.0
  O  O12648  1  0.74973358  0.03401787  0.72661251  1.0
  O  O12649  1  0.74973358  0.20068454  0.72661251  1.0
  O  O12650  1  0.74973358  0.36735121  0.72661251  1.0
  O  O12651  1  0.74973358  0.53401787  0.72661251  1.0
  O  O12652  1  0.74973358  0.70068454  0.72661251  1.0
  O  O12653  1  0.74973358  0.86735121  0.72661251  1.0
  O  O12654  1  0.83306691  0.03401787  0.72661251  1.0
  O  O12655  1  0.83306691  0.20068454  0.72661251  1.0
  O  O12656  1  0.83306691  0.36735121  0.72661251  1.0
  O  O12657  1  0.83306691  0.53401787  0.72661251  1.0
  O  O12658  1  0.83306691  0.70068454  0.72661251  1.0
  O  O12659  1  0.83306691  0.86735121  0.72661251  1.0
  O  O12660  1  0.91640025  0.03401787  0.72661251  1.0
  O  O12661  1  0.91640025  0.20068454  0.72661251  1.0
  O  O12662  1  0.91640025  0.36735121  0.72661251  1.0
  O  O12663  1  0.91640025  0.53401787  0.72661251  1.0
  O  O12664  1  0.91640025  0.70068454  0.72661251  1.0
  O  O12665  1  0.91640025  0.86735121  0.72661251  1.0
  O  O12666  1  0.99973358  0.03401787  0.72661251  1.0
  O  O12667  1  0.99973358  0.20068454  0.72661251  1.0
  O  O12668  1  0.99973358  0.36735121  0.72661251  1.0
  O  O12669  1  0.99973358  0.53401787  0.72661251  1.0
  O  O12670  1  0.99973358  0.70068454  0.72661251  1.0
  O  O12671  1  0.99973358  0.86735121  0.72661251  1.0
  O  O12672  1  0.02180209  0.11991371  0.78160318  1.0
  O  O12673  1  0.02180209  0.28658037  0.78160318  1.0
  O  O12674  1  0.02180209  0.45324704  0.78160318  1.0
  O  O12675  1  0.02180209  0.61991371  0.78160318  1.0
  O  O12676  1  0.02180209  0.78658037  0.78160318  1.0
  O  O12677  1  0.02180209  0.95324704  0.78160318  1.0
  O  O12678  1  0.10513542  0.11991371  0.78160318  1.0
  O  O12679  1  0.10513542  0.28658037  0.78160318  1.0
  O  O12680  1  0.10513542  0.45324704  0.78160318  1.0
  O  O12681  1  0.10513542  0.61991371  0.78160318  1.0
  O  O12682  1  0.10513542  0.78658037  0.78160318  1.0
  O  O12683  1  0.10513542  0.95324704  0.78160318  1.0
  O  O12684  1  0.18846875  0.11991371  0.78160318  1.0
  O  O12685  1  0.18846875  0.28658037  0.78160318  1.0
  O  O12686  1  0.18846875  0.45324704  0.78160318  1.0
  O  O12687  1  0.18846875  0.61991371  0.78160318  1.0
  O  O12688  1  0.18846875  0.78658037  0.78160318  1.0
  O  O12689  1  0.18846875  0.95324704  0.78160318  1.0
  O  O12690  1  0.27180209  0.11991371  0.78160318  1.0
  O  O12691  1  0.27180209  0.28658037  0.78160318  1.0
  O  O12692  1  0.27180209  0.45324704  0.78160318  1.0
  O  O12693  1  0.27180209  0.61991371  0.78160318  1.0
  O  O12694  1  0.27180209  0.78658037  0.78160318  1.0
  O  O12695  1  0.27180209  0.95324704  0.78160318  1.0
  O  O12696  1  0.35513542  0.11991371  0.78160318  1.0
  O  O12697  1  0.35513542  0.28658037  0.78160318  1.0
  O  O12698  1  0.35513542  0.45324704  0.78160318  1.0
  O  O12699  1  0.35513542  0.61991371  0.78160318  1.0
  O  O12700  1  0.35513542  0.78658037  0.78160318  1.0
  O  O12701  1  0.35513542  0.95324704  0.78160318  1.0
  O  O12702  1  0.43846875  0.11991371  0.78160318  1.0
  O  O12703  1  0.43846875  0.28658037  0.78160318  1.0
  O  O12704  1  0.43846875  0.45324704  0.78160318  1.0
  O  O12705  1  0.43846875  0.61991371  0.78160318  1.0
  O  O12706  1  0.43846875  0.78658037  0.78160318  1.0
  O  O12707  1  0.43846875  0.95324704  0.78160318  1.0
  O  O12708  1  0.52180209  0.11991371  0.78160318  1.0
  O  O12709  1  0.52180209  0.28658037  0.78160318  1.0
  O  O12710  1  0.52180209  0.45324704  0.78160318  1.0
  O  O12711  1  0.52180209  0.61991371  0.78160318  1.0
  O  O12712  1  0.52180209  0.78658037  0.78160318  1.0
  O  O12713  1  0.52180209  0.95324704  0.78160318  1.0
  O  O12714  1  0.60513542  0.11991371  0.78160318  1.0
  O  O12715  1  0.60513542  0.28658037  0.78160318  1.0
  O  O12716  1  0.60513542  0.45324704  0.78160318  1.0
  O  O12717  1  0.60513542  0.61991371  0.78160318  1.0
  O  O12718  1  0.60513542  0.78658037  0.78160318  1.0
  O  O12719  1  0.60513542  0.95324704  0.78160318  1.0
  O  O12720  1  0.68846875  0.11991371  0.78160318  1.0
  O  O12721  1  0.68846875  0.28658037  0.78160318  1.0
  O  O12722  1  0.68846875  0.45324704  0.78160318  1.0
  O  O12723  1  0.68846875  0.61991371  0.78160318  1.0
  O  O12724  1  0.68846875  0.78658037  0.78160318  1.0
  O  O12725  1  0.68846875  0.95324704  0.78160318  1.0
  O  O12726  1  0.77180209  0.11991371  0.78160318  1.0
  O  O12727  1  0.77180209  0.28658037  0.78160318  1.0
  O  O12728  1  0.77180209  0.45324704  0.78160318  1.0
  O  O12729  1  0.77180209  0.61991371  0.78160318  1.0
  O  O12730  1  0.77180209  0.78658037  0.78160318  1.0
  O  O12731  1  0.77180209  0.95324704  0.78160318  1.0
  O  O12732  1  0.85513542  0.11991371  0.78160318  1.0
  O  O12733  1  0.85513542  0.28658037  0.78160318  1.0
  O  O12734  1  0.85513542  0.45324704  0.78160318  1.0
  O  O12735  1  0.85513542  0.61991371  0.78160318  1.0
  O  O12736  1  0.85513542  0.78658037  0.78160318  1.0
  O  O12737  1  0.85513542  0.95324704  0.78160318  1.0
  O  O12738  1  0.93846875  0.11991371  0.78160318  1.0
  O  O12739  1  0.93846875  0.28658037  0.78160318  1.0
  O  O12740  1  0.93846875  0.45324704  0.78160318  1.0
  O  O12741  1  0.93846875  0.61991371  0.78160318  1.0
  O  O12742  1  0.93846875  0.78658037  0.78160318  1.0
  O  O12743  1  0.93846875  0.95324704  0.78160318  1.0
  O  O12744  1  0.04561161  0.13181847  0.71017461  1.0
  O  O12745  1  0.04561161  0.29848514  0.71017461  1.0
  O  O12746  1  0.04561161  0.46515180  0.71017461  1.0
  O  O12747  1  0.04561161  0.63181847  0.71017461  1.0
  O  O12748  1  0.04561161  0.79848514  0.71017461  1.0
  O  O12749  1  0.04561161  0.96515180  0.71017461  1.0
  O  O12750  1  0.12894494  0.13181847  0.71017461  1.0
  O  O12751  1  0.12894494  0.29848514  0.71017461  1.0
  O  O12752  1  0.12894494  0.46515180  0.71017461  1.0
  O  O12753  1  0.12894494  0.63181847  0.71017461  1.0
  O  O12754  1  0.12894494  0.79848514  0.71017461  1.0
  O  O12755  1  0.12894494  0.96515180  0.71017461  1.0
  O  O12756  1  0.21227828  0.13181847  0.71017461  1.0
  O  O12757  1  0.21227828  0.29848514  0.71017461  1.0
  O  O12758  1  0.21227828  0.46515180  0.71017461  1.0
  O  O12759  1  0.21227828  0.63181847  0.71017461  1.0
  O  O12760  1  0.21227828  0.79848514  0.71017461  1.0
  O  O12761  1  0.21227828  0.96515180  0.71017461  1.0
  O  O12762  1  0.29561161  0.13181847  0.71017461  1.0
  O  O12763  1  0.29561161  0.29848514  0.71017461  1.0
  O  O12764  1  0.29561161  0.46515180  0.71017461  1.0
  O  O12765  1  0.29561161  0.63181847  0.71017461  1.0
  O  O12766  1  0.29561161  0.79848514  0.71017461  1.0
  O  O12767  1  0.29561161  0.96515180  0.71017461  1.0
  O  O12768  1  0.37894494  0.13181847  0.71017461  1.0
  O  O12769  1  0.37894494  0.29848514  0.71017461  1.0
  O  O12770  1  0.37894494  0.46515180  0.71017461  1.0
  O  O12771  1  0.37894494  0.63181847  0.71017461  1.0
  O  O12772  1  0.37894494  0.79848514  0.71017461  1.0
  O  O12773  1  0.37894494  0.96515180  0.71017461  1.0
  O  O12774  1  0.46227828  0.13181847  0.71017461  1.0
  O  O12775  1  0.46227828  0.29848514  0.71017461  1.0
  O  O12776  1  0.46227828  0.46515180  0.71017461  1.0
  O  O12777  1  0.46227828  0.63181847  0.71017461  1.0
  O  O12778  1  0.46227828  0.79848514  0.71017461  1.0
  O  O12779  1  0.46227828  0.96515180  0.71017461  1.0
  O  O12780  1  0.54561161  0.13181847  0.71017461  1.0
  O  O12781  1  0.54561161  0.29848514  0.71017461  1.0
  O  O12782  1  0.54561161  0.46515180  0.71017461  1.0
  O  O12783  1  0.54561161  0.63181847  0.71017461  1.0
  O  O12784  1  0.54561161  0.79848514  0.71017461  1.0
  O  O12785  1  0.54561161  0.96515180  0.71017461  1.0
  O  O12786  1  0.62894494  0.13181847  0.71017461  1.0
  O  O12787  1  0.62894494  0.29848514  0.71017461  1.0
  O  O12788  1  0.62894494  0.46515180  0.71017461  1.0
  O  O12789  1  0.62894494  0.63181847  0.71017461  1.0
  O  O12790  1  0.62894494  0.79848514  0.71017461  1.0
  O  O12791  1  0.62894494  0.96515180  0.71017461  1.0
  O  O12792  1  0.71227828  0.13181847  0.71017461  1.0
  O  O12793  1  0.71227828  0.29848514  0.71017461  1.0
  O  O12794  1  0.71227828  0.46515180  0.71017461  1.0
  O  O12795  1  0.71227828  0.63181847  0.71017461  1.0
  O  O12796  1  0.71227828  0.79848514  0.71017461  1.0
  O  O12797  1  0.71227828  0.96515180  0.71017461  1.0
  O  O12798  1  0.79561161  0.13181847  0.71017461  1.0
  O  O12799  1  0.79561161  0.29848514  0.71017461  1.0
  O  O12800  1  0.79561161  0.46515180  0.71017461  1.0
  O  O12801  1  0.79561161  0.63181847  0.71017461  1.0
  O  O12802  1  0.79561161  0.79848514  0.71017461  1.0
  O  O12803  1  0.79561161  0.96515180  0.71017461  1.0
  O  O12804  1  0.87894494  0.13181847  0.71017461  1.0
  O  O12805  1  0.87894494  0.29848514  0.71017461  1.0
  O  O12806  1  0.87894494  0.46515180  0.71017461  1.0
  O  O12807  1  0.87894494  0.63181847  0.71017461  1.0
  O  O12808  1  0.87894494  0.79848514  0.71017461  1.0
  O  O12809  1  0.87894494  0.96515180  0.71017461  1.0
  O  O12810  1  0.96227828  0.13181847  0.71017461  1.0
  O  O12811  1  0.96227828  0.29848514  0.71017461  1.0
  O  O12812  1  0.96227828  0.46515180  0.71017461  1.0
  O  O12813  1  0.96227828  0.63181847  0.71017461  1.0
  O  O12814  1  0.96227828  0.79848514  0.71017461  1.0
  O  O12815  1  0.96227828  0.96515180  0.71017461  1.0
  O  O12816  1  0.06892029  0.05141242  0.76725673  1.0
  O  O12817  1  0.06892029  0.21807909  0.76725673  1.0
  O  O12818  1  0.06892029  0.38474575  0.76725673  1.0
  O  O12819  1  0.06892029  0.55141242  0.76725673  1.0
  O  O12820  1  0.06892029  0.71807909  0.76725673  1.0
  O  O12821  1  0.06892029  0.88474575  0.76725673  1.0
  O  O12822  1  0.15225362  0.05141242  0.76725673  1.0
  O  O12823  1  0.15225362  0.21807909  0.76725673  1.0
  O  O12824  1  0.15225362  0.38474575  0.76725673  1.0
  O  O12825  1  0.15225362  0.55141242  0.76725673  1.0
  O  O12826  1  0.15225362  0.71807909  0.76725673  1.0
  O  O12827  1  0.15225362  0.88474575  0.76725673  1.0
  O  O12828  1  0.23558696  0.05141242  0.76725673  1.0
  O  O12829  1  0.23558696  0.21807909  0.76725673  1.0
  O  O12830  1  0.23558696  0.38474575  0.76725673  1.0
  O  O12831  1  0.23558696  0.55141242  0.76725673  1.0
  O  O12832  1  0.23558696  0.71807909  0.76725673  1.0
  O  O12833  1  0.23558696  0.88474575  0.76725673  1.0
  O  O12834  1  0.31892029  0.05141242  0.76725673  1.0
  O  O12835  1  0.31892029  0.21807909  0.76725673  1.0
  O  O12836  1  0.31892029  0.38474575  0.76725673  1.0
  O  O12837  1  0.31892029  0.55141242  0.76725673  1.0
  O  O12838  1  0.31892029  0.71807909  0.76725673  1.0
  O  O12839  1  0.31892029  0.88474575  0.76725673  1.0
  O  O12840  1  0.40225362  0.05141242  0.76725673  1.0
  O  O12841  1  0.40225362  0.21807909  0.76725673  1.0
  O  O12842  1  0.40225362  0.38474575  0.76725673  1.0
  O  O12843  1  0.40225362  0.55141242  0.76725673  1.0
  O  O12844  1  0.40225362  0.71807909  0.76725673  1.0
  O  O12845  1  0.40225362  0.88474575  0.76725673  1.0
  O  O12846  1  0.48558696  0.05141242  0.76725673  1.0
  O  O12847  1  0.48558696  0.21807909  0.76725673  1.0
  O  O12848  1  0.48558696  0.38474575  0.76725673  1.0
  O  O12849  1  0.48558696  0.55141242  0.76725673  1.0
  O  O12850  1  0.48558696  0.71807909  0.76725673  1.0
  O  O12851  1  0.48558696  0.88474575  0.76725673  1.0
  O  O12852  1  0.56892029  0.05141242  0.76725673  1.0
  O  O12853  1  0.56892029  0.21807909  0.76725673  1.0
  O  O12854  1  0.56892029  0.38474575  0.76725673  1.0
  O  O12855  1  0.56892029  0.55141242  0.76725673  1.0
  O  O12856  1  0.56892029  0.71807909  0.76725673  1.0
  O  O12857  1  0.56892029  0.88474575  0.76725673  1.0
  O  O12858  1  0.65225362  0.05141242  0.76725673  1.0
  O  O12859  1  0.65225362  0.21807909  0.76725673  1.0
  O  O12860  1  0.65225362  0.38474575  0.76725673  1.0
  O  O12861  1  0.65225362  0.55141242  0.76725673  1.0
  O  O12862  1  0.65225362  0.71807909  0.76725673  1.0
  O  O12863  1  0.65225362  0.88474575  0.76725673  1.0
  O  O12864  1  0.73558696  0.05141242  0.76725673  1.0
  O  O12865  1  0.73558696  0.21807909  0.76725673  1.0
  O  O12866  1  0.73558696  0.38474575  0.76725673  1.0
  O  O12867  1  0.73558696  0.55141242  0.76725673  1.0
  O  O12868  1  0.73558696  0.71807909  0.76725673  1.0
  O  O12869  1  0.73558696  0.88474575  0.76725673  1.0
  O  O12870  1  0.81892029  0.05141242  0.76725673  1.0
  O  O12871  1  0.81892029  0.21807909  0.76725673  1.0
  O  O12872  1  0.81892029  0.38474575  0.76725673  1.0
  O  O12873  1  0.81892029  0.55141242  0.76725673  1.0
  O  O12874  1  0.81892029  0.71807909  0.76725673  1.0
  O  O12875  1  0.81892029  0.88474575  0.76725673  1.0
  O  O12876  1  0.90225362  0.05141242  0.76725673  1.0
  O  O12877  1  0.90225362  0.21807909  0.76725673  1.0
  O  O12878  1  0.90225362  0.38474575  0.76725673  1.0
  O  O12879  1  0.90225362  0.55141242  0.76725673  1.0
  O  O12880  1  0.90225362  0.71807909  0.76725673  1.0
  O  O12881  1  0.90225362  0.88474575  0.76725673  1.0
  O  O12882  1  0.98558696  0.05141242  0.76725673  1.0
  O  O12883  1  0.98558696  0.21807909  0.76725673  1.0
  O  O12884  1  0.98558696  0.38474575  0.76725673  1.0
  O  O12885  1  0.98558696  0.55141242  0.76725673  1.0
  O  O12886  1  0.98558696  0.71807909  0.76725673  1.0
  O  O12887  1  0.98558696  0.88474575  0.76725673  1.0
  O  O12888  1  0.00939648  0.06331718  0.69582816  1.0
  O  O12889  1  0.00939648  0.22998385  0.69582816  1.0
  O  O12890  1  0.00939648  0.39665051  0.69582816  1.0
  O  O12891  1  0.00939648  0.56331718  0.69582816  1.0
  O  O12892  1  0.00939648  0.72998385  0.69582816  1.0
  O  O12893  1  0.00939648  0.89665051  0.69582816  1.0
  O  O12894  1  0.09272981  0.06331718  0.69582816  1.0
  O  O12895  1  0.09272981  0.22998385  0.69582816  1.0
  O  O12896  1  0.09272981  0.39665051  0.69582816  1.0
  O  O12897  1  0.09272981  0.56331718  0.69582816  1.0
  O  O12898  1  0.09272981  0.72998385  0.69582816  1.0
  O  O12899  1  0.09272981  0.89665051  0.69582816  1.0
  O  O12900  1  0.17606315  0.06331718  0.69582816  1.0
  O  O12901  1  0.17606315  0.22998385  0.69582816  1.0
  O  O12902  1  0.17606315  0.39665051  0.69582816  1.0
  O  O12903  1  0.17606315  0.56331718  0.69582816  1.0
  O  O12904  1  0.17606315  0.72998385  0.69582816  1.0
  O  O12905  1  0.17606315  0.89665051  0.69582816  1.0
  O  O12906  1  0.25939648  0.06331718  0.69582816  1.0
  O  O12907  1  0.25939648  0.22998385  0.69582816  1.0
  O  O12908  1  0.25939648  0.39665051  0.69582816  1.0
  O  O12909  1  0.25939648  0.56331718  0.69582816  1.0
  O  O12910  1  0.25939648  0.72998385  0.69582816  1.0
  O  O12911  1  0.25939648  0.89665051  0.69582816  1.0
  O  O12912  1  0.34272981  0.06331718  0.69582816  1.0
  O  O12913  1  0.34272981  0.22998385  0.69582816  1.0
  O  O12914  1  0.34272981  0.39665051  0.69582816  1.0
  O  O12915  1  0.34272981  0.56331718  0.69582816  1.0
  O  O12916  1  0.34272981  0.72998385  0.69582816  1.0
  O  O12917  1  0.34272981  0.89665051  0.69582816  1.0
  O  O12918  1  0.42606315  0.06331718  0.69582816  1.0
  O  O12919  1  0.42606315  0.22998385  0.69582816  1.0
  O  O12920  1  0.42606315  0.39665051  0.69582816  1.0
  O  O12921  1  0.42606315  0.56331718  0.69582816  1.0
  O  O12922  1  0.42606315  0.72998385  0.69582816  1.0
  O  O12923  1  0.42606315  0.89665051  0.69582816  1.0
  O  O12924  1  0.50939648  0.06331718  0.69582816  1.0
  O  O12925  1  0.50939648  0.22998385  0.69582816  1.0
  O  O12926  1  0.50939648  0.39665051  0.69582816  1.0
  O  O12927  1  0.50939648  0.56331718  0.69582816  1.0
  O  O12928  1  0.50939648  0.72998385  0.69582816  1.0
  O  O12929  1  0.50939648  0.89665051  0.69582816  1.0
  O  O12930  1  0.59272981  0.06331718  0.69582816  1.0
  O  O12931  1  0.59272981  0.22998385  0.69582816  1.0
  O  O12932  1  0.59272981  0.39665051  0.69582816  1.0
  O  O12933  1  0.59272981  0.56331718  0.69582816  1.0
  O  O12934  1  0.59272981  0.72998385  0.69582816  1.0
  O  O12935  1  0.59272981  0.89665051  0.69582816  1.0
  O  O12936  1  0.67606315  0.06331718  0.69582816  1.0
  O  O12937  1  0.67606315  0.22998385  0.69582816  1.0
  O  O12938  1  0.67606315  0.39665051  0.69582816  1.0
  O  O12939  1  0.67606315  0.56331718  0.69582816  1.0
  O  O12940  1  0.67606315  0.72998385  0.69582816  1.0
  O  O12941  1  0.67606315  0.89665051  0.69582816  1.0
  O  O12942  1  0.75939648  0.06331718  0.69582816  1.0
  O  O12943  1  0.75939648  0.22998385  0.69582816  1.0
  O  O12944  1  0.75939648  0.39665051  0.69582816  1.0
  O  O12945  1  0.75939648  0.56331718  0.69582816  1.0
  O  O12946  1  0.75939648  0.72998385  0.69582816  1.0
  O  O12947  1  0.75939648  0.89665051  0.69582816  1.0
  O  O12948  1  0.84272981  0.06331718  0.69582816  1.0
  O  O12949  1  0.84272981  0.22998385  0.69582816  1.0
  O  O12950  1  0.84272981  0.39665051  0.69582816  1.0
  O  O12951  1  0.84272981  0.56331718  0.69582816  1.0
  O  O12952  1  0.84272981  0.72998385  0.69582816  1.0
  O  O12953  1  0.84272981  0.89665051  0.69582816  1.0
  O  O12954  1  0.92606315  0.06331718  0.69582816  1.0
  O  O12955  1  0.92606315  0.22998385  0.69582816  1.0
  O  O12956  1  0.92606315  0.39665051  0.69582816  1.0
  O  O12957  1  0.92606315  0.56331718  0.69582816  1.0
  O  O12958  1  0.92606315  0.72998385  0.69582816  1.0
  O  O12959  1  0.92606315  0.89665051  0.69582816  1.0
  O  O12960  1  0.02780090  0.07358002  0.77063649  1.0
  O  O12961  1  0.02780090  0.24024668  0.77063649  1.0
  O  O12962  1  0.02780090  0.40691335  0.77063649  1.0
  O  O12963  1  0.02780090  0.57358002  0.77063649  1.0
  O  O12964  1  0.02780090  0.74024668  0.77063649  1.0
  O  O12965  1  0.02780090  0.90691335  0.77063649  1.0
  O  O12966  1  0.11113424  0.07358002  0.77063649  1.0
  O  O12967  1  0.11113424  0.24024668  0.77063649  1.0
  O  O12968  1  0.11113424  0.40691335  0.77063649  1.0
  O  O12969  1  0.11113424  0.57358002  0.77063649  1.0
  O  O12970  1  0.11113424  0.74024668  0.77063649  1.0
  O  O12971  1  0.11113424  0.90691335  0.77063649  1.0
  O  O12972  1  0.19446757  0.07358002  0.77063649  1.0
  O  O12973  1  0.19446757  0.24024668  0.77063649  1.0
  O  O12974  1  0.19446757  0.40691335  0.77063649  1.0
  O  O12975  1  0.19446757  0.57358002  0.77063649  1.0
  O  O12976  1  0.19446757  0.74024668  0.77063649  1.0
  O  O12977  1  0.19446757  0.90691335  0.77063649  1.0
  O  O12978  1  0.27780090  0.07358002  0.77063649  1.0
  O  O12979  1  0.27780090  0.24024668  0.77063649  1.0
  O  O12980  1  0.27780090  0.40691335  0.77063649  1.0
  O  O12981  1  0.27780090  0.57358002  0.77063649  1.0
  O  O12982  1  0.27780090  0.74024668  0.77063649  1.0
  O  O12983  1  0.27780090  0.90691335  0.77063649  1.0
  O  O12984  1  0.36113424  0.07358002  0.77063649  1.0
  O  O12985  1  0.36113424  0.24024668  0.77063649  1.0
  O  O12986  1  0.36113424  0.40691335  0.77063649  1.0
  O  O12987  1  0.36113424  0.57358002  0.77063649  1.0
  O  O12988  1  0.36113424  0.74024668  0.77063649  1.0
  O  O12989  1  0.36113424  0.90691335  0.77063649  1.0
  O  O12990  1  0.44446757  0.07358002  0.77063649  1.0
  O  O12991  1  0.44446757  0.24024668  0.77063649  1.0
  O  O12992  1  0.44446757  0.40691335  0.77063649  1.0
  O  O12993  1  0.44446757  0.57358002  0.77063649  1.0
  O  O12994  1  0.44446757  0.74024668  0.77063649  1.0
  O  O12995  1  0.44446757  0.90691335  0.77063649  1.0
  O  O12996  1  0.52780090  0.07358002  0.77063649  1.0
  O  O12997  1  0.52780090  0.24024668  0.77063649  1.0
  O  O12998  1  0.52780090  0.40691335  0.77063649  1.0
  O  O12999  1  0.52780090  0.57358002  0.77063649  1.0
  O  O13000  1  0.52780090  0.74024668  0.77063649  1.0
  O  O13001  1  0.52780090  0.90691335  0.77063649  1.0
  O  O13002  1  0.61113424  0.07358002  0.77063649  1.0
  O  O13003  1  0.61113424  0.24024668  0.77063649  1.0
  O  O13004  1  0.61113424  0.40691335  0.77063649  1.0
  O  O13005  1  0.61113424  0.57358002  0.77063649  1.0
  O  O13006  1  0.61113424  0.74024668  0.77063649  1.0
  O  O13007  1  0.61113424  0.90691335  0.77063649  1.0
  O  O13008  1  0.69446757  0.07358002  0.77063649  1.0
  O  O13009  1  0.69446757  0.24024668  0.77063649  1.0
  O  O13010  1  0.69446757  0.40691335  0.77063649  1.0
  O  O13011  1  0.69446757  0.57358002  0.77063649  1.0
  O  O13012  1  0.69446757  0.74024668  0.77063649  1.0
  O  O13013  1  0.69446757  0.90691335  0.77063649  1.0
  O  O13014  1  0.77780090  0.07358002  0.77063649  1.0
  O  O13015  1  0.77780090  0.24024668  0.77063649  1.0
  O  O13016  1  0.77780090  0.40691335  0.77063649  1.0
  O  O13017  1  0.77780090  0.57358002  0.77063649  1.0
  O  O13018  1  0.77780090  0.74024668  0.77063649  1.0
  O  O13019  1  0.77780090  0.90691335  0.77063649  1.0
  O  O13020  1  0.86113424  0.07358002  0.77063649  1.0
  O  O13021  1  0.86113424  0.24024668  0.77063649  1.0
  O  O13022  1  0.86113424  0.40691335  0.77063649  1.0
  O  O13023  1  0.86113424  0.57358002  0.77063649  1.0
  O  O13024  1  0.86113424  0.74024668  0.77063649  1.0
  O  O13025  1  0.86113424  0.90691335  0.77063649  1.0
  O  O13026  1  0.94446757  0.07358002  0.77063649  1.0
  O  O13027  1  0.94446757  0.24024668  0.77063649  1.0
  O  O13028  1  0.94446757  0.40691335  0.77063649  1.0
  O  O13029  1  0.94446757  0.57358002  0.77063649  1.0
  O  O13030  1  0.94446757  0.74024668  0.77063649  1.0
  O  O13031  1  0.94446757  0.90691335  0.77063649  1.0
  O  O13032  1  0.05161043  0.08548478  0.69920792  1.0
  O  O13033  1  0.05161043  0.25215145  0.69920792  1.0
  O  O13034  1  0.05161043  0.41881811  0.69920792  1.0
  O  O13035  1  0.05161043  0.58548478  0.69920792  1.0
  O  O13036  1  0.05161043  0.75215145  0.69920792  1.0
  O  O13037  1  0.05161043  0.91881811  0.69920792  1.0
  O  O13038  1  0.13494376  0.08548478  0.69920792  1.0
  O  O13039  1  0.13494376  0.25215145  0.69920792  1.0
  O  O13040  1  0.13494376  0.41881811  0.69920792  1.0
  O  O13041  1  0.13494376  0.58548478  0.69920792  1.0
  O  O13042  1  0.13494376  0.75215145  0.69920792  1.0
  O  O13043  1  0.13494376  0.91881811  0.69920792  1.0
  O  O13044  1  0.21827709  0.08548478  0.69920792  1.0
  O  O13045  1  0.21827709  0.25215145  0.69920792  1.0
  O  O13046  1  0.21827709  0.41881811  0.69920792  1.0
  O  O13047  1  0.21827709  0.58548478  0.69920792  1.0
  O  O13048  1  0.21827709  0.75215145  0.69920792  1.0
  O  O13049  1  0.21827709  0.91881811  0.69920792  1.0
  O  O13050  1  0.30161043  0.08548478  0.69920792  1.0
  O  O13051  1  0.30161043  0.25215145  0.69920792  1.0
  O  O13052  1  0.30161043  0.41881811  0.69920792  1.0
  O  O13053  1  0.30161043  0.58548478  0.69920792  1.0
  O  O13054  1  0.30161043  0.75215145  0.69920792  1.0
  O  O13055  1  0.30161043  0.91881811  0.69920792  1.0
  O  O13056  1  0.38494376  0.08548478  0.69920792  1.0
  O  O13057  1  0.38494376  0.25215145  0.69920792  1.0
  O  O13058  1  0.38494376  0.41881811  0.69920792  1.0
  O  O13059  1  0.38494376  0.58548478  0.69920792  1.0
  O  O13060  1  0.38494376  0.75215145  0.69920792  1.0
  O  O13061  1  0.38494376  0.91881811  0.69920792  1.0
  O  O13062  1  0.46827709  0.08548478  0.69920792  1.0
  O  O13063  1  0.46827709  0.25215145  0.69920792  1.0
  O  O13064  1  0.46827709  0.41881811  0.69920792  1.0
  O  O13065  1  0.46827709  0.58548478  0.69920792  1.0
  O  O13066  1  0.46827709  0.75215145  0.69920792  1.0
  O  O13067  1  0.46827709  0.91881811  0.69920792  1.0
  O  O13068  1  0.55161043  0.08548478  0.69920792  1.0
  O  O13069  1  0.55161043  0.25215145  0.69920792  1.0
  O  O13070  1  0.55161043  0.41881811  0.69920792  1.0
  O  O13071  1  0.55161043  0.58548478  0.69920792  1.0
  O  O13072  1  0.55161043  0.75215145  0.69920792  1.0
  O  O13073  1  0.55161043  0.91881811  0.69920792  1.0
  O  O13074  1  0.63494376  0.08548478  0.69920792  1.0
  O  O13075  1  0.63494376  0.25215145  0.69920792  1.0
  O  O13076  1  0.63494376  0.41881811  0.69920792  1.0
  O  O13077  1  0.63494376  0.58548478  0.69920792  1.0
  O  O13078  1  0.63494376  0.75215145  0.69920792  1.0
  O  O13079  1  0.63494376  0.91881811  0.69920792  1.0
  O  O13080  1  0.71827709  0.08548478  0.69920792  1.0
  O  O13081  1  0.71827709  0.25215145  0.69920792  1.0
  O  O13082  1  0.71827709  0.41881811  0.69920792  1.0
  O  O13083  1  0.71827709  0.58548478  0.69920792  1.0
  O  O13084  1  0.71827709  0.75215145  0.69920792  1.0
  O  O13085  1  0.71827709  0.91881811  0.69920792  1.0
  O  O13086  1  0.80161043  0.08548478  0.69920792  1.0
  O  O13087  1  0.80161043  0.25215145  0.69920792  1.0
  O  O13088  1  0.80161043  0.41881811  0.69920792  1.0
  O  O13089  1  0.80161043  0.58548478  0.69920792  1.0
  O  O13090  1  0.80161043  0.75215145  0.69920792  1.0
  O  O13091  1  0.80161043  0.91881811  0.69920792  1.0
  O  O13092  1  0.88494376  0.08548478  0.69920792  1.0
  O  O13093  1  0.88494376  0.25215145  0.69920792  1.0
  O  O13094  1  0.88494376  0.41881811  0.69920792  1.0
  O  O13095  1  0.88494376  0.58548478  0.69920792  1.0
  O  O13096  1  0.88494376  0.75215145  0.69920792  1.0
  O  O13097  1  0.88494376  0.91881811  0.69920792  1.0
  O  O13098  1  0.96827709  0.08548478  0.69920792  1.0
  O  O13099  1  0.96827709  0.25215145  0.69920792  1.0
  O  O13100  1  0.96827709  0.41881811  0.69920792  1.0
  O  O13101  1  0.96827709  0.58548478  0.69920792  1.0
  O  O13102  1  0.96827709  0.75215145  0.69920792  1.0
  O  O13103  1  0.96827709  0.91881811  0.69920792  1.0
  O  O13104  1  0.06513023  0.02186495  0.64947838  1.0
  O  O13105  1  0.06513023  0.18853161  0.64947838  1.0
  O  O13106  1  0.06513023  0.35519828  0.64947838  1.0
  O  O13107  1  0.06513023  0.52186495  0.64947838  1.0
  O  O13108  1  0.06513023  0.68853161  0.64947838  1.0
  O  O13109  1  0.06513023  0.85519828  0.64947838  1.0
  O  O13110  1  0.14846357  0.02186495  0.64947838  1.0
  O  O13111  1  0.14846357  0.18853161  0.64947838  1.0
  O  O13112  1  0.14846357  0.35519828  0.64947838  1.0
  O  O13113  1  0.14846357  0.52186495  0.64947838  1.0
  O  O13114  1  0.14846357  0.68853161  0.64947838  1.0
  O  O13115  1  0.14846357  0.85519828  0.64947838  1.0
  O  O13116  1  0.23179690  0.02186495  0.64947838  1.0
  O  O13117  1  0.23179690  0.18853161  0.64947838  1.0
  O  O13118  1  0.23179690  0.35519828  0.64947838  1.0
  O  O13119  1  0.23179690  0.52186495  0.64947838  1.0
  O  O13120  1  0.23179690  0.68853161  0.64947838  1.0
  O  O13121  1  0.23179690  0.85519828  0.64947838  1.0
  O  O13122  1  0.31513023  0.02186495  0.64947838  1.0
  O  O13123  1  0.31513023  0.18853161  0.64947838  1.0
  O  O13124  1  0.31513023  0.35519828  0.64947838  1.0
  O  O13125  1  0.31513023  0.52186495  0.64947838  1.0
  O  O13126  1  0.31513023  0.68853161  0.64947838  1.0
  O  O13127  1  0.31513023  0.85519828  0.64947838  1.0
  O  O13128  1  0.39846357  0.02186495  0.64947838  1.0
  O  O13129  1  0.39846357  0.18853161  0.64947838  1.0
  O  O13130  1  0.39846357  0.35519828  0.64947838  1.0
  O  O13131  1  0.39846357  0.52186495  0.64947838  1.0
  O  O13132  1  0.39846357  0.68853161  0.64947838  1.0
  O  O13133  1  0.39846357  0.85519828  0.64947838  1.0
  O  O13134  1  0.48179690  0.02186495  0.64947838  1.0
  O  O13135  1  0.48179690  0.18853161  0.64947838  1.0
  O  O13136  1  0.48179690  0.35519828  0.64947838  1.0
  O  O13137  1  0.48179690  0.52186495  0.64947838  1.0
  O  O13138  1  0.48179690  0.68853161  0.64947838  1.0
  O  O13139  1  0.48179690  0.85519828  0.64947838  1.0
  O  O13140  1  0.56513023  0.02186495  0.64947838  1.0
  O  O13141  1  0.56513023  0.18853161  0.64947838  1.0
  O  O13142  1  0.56513023  0.35519828  0.64947838  1.0
  O  O13143  1  0.56513023  0.52186495  0.64947838  1.0
  O  O13144  1  0.56513023  0.68853161  0.64947838  1.0
  O  O13145  1  0.56513023  0.85519828  0.64947838  1.0
  O  O13146  1  0.64846357  0.02186495  0.64947838  1.0
  O  O13147  1  0.64846357  0.18853161  0.64947838  1.0
  O  O13148  1  0.64846357  0.35519828  0.64947838  1.0
  O  O13149  1  0.64846357  0.52186495  0.64947838  1.0
  O  O13150  1  0.64846357  0.68853161  0.64947838  1.0
  O  O13151  1  0.64846357  0.85519828  0.64947838  1.0
  O  O13152  1  0.73179690  0.02186495  0.64947838  1.0
  O  O13153  1  0.73179690  0.18853161  0.64947838  1.0
  O  O13154  1  0.73179690  0.35519828  0.64947838  1.0
  O  O13155  1  0.73179690  0.52186495  0.64947838  1.0
  O  O13156  1  0.73179690  0.68853161  0.64947838  1.0
  O  O13157  1  0.73179690  0.85519828  0.64947838  1.0
  O  O13158  1  0.81513023  0.02186495  0.64947838  1.0
  O  O13159  1  0.81513023  0.18853161  0.64947838  1.0
  O  O13160  1  0.81513023  0.35519828  0.64947838  1.0
  O  O13161  1  0.81513023  0.52186495  0.64947838  1.0
  O  O13162  1  0.81513023  0.68853161  0.64947838  1.0
  O  O13163  1  0.81513023  0.85519828  0.64947838  1.0
  O  O13164  1  0.89846357  0.02186495  0.64947838  1.0
  O  O13165  1  0.89846357  0.18853161  0.64947838  1.0
  O  O13166  1  0.89846357  0.35519828  0.64947838  1.0
  O  O13167  1  0.89846357  0.52186495  0.64947838  1.0
  O  O13168  1  0.89846357  0.68853161  0.64947838  1.0
  O  O13169  1  0.89846357  0.85519828  0.64947838  1.0
  O  O13170  1  0.98179690  0.02186495  0.64947838  1.0
  O  O13171  1  0.98179690  0.18853161  0.64947838  1.0
  O  O13172  1  0.98179690  0.35519828  0.64947838  1.0
  O  O13173  1  0.98179690  0.52186495  0.64947838  1.0
  O  O13174  1  0.98179690  0.68853161  0.64947838  1.0
  O  O13175  1  0.98179690  0.85519828  0.64947838  1.0
  O  O13176  1  0.04132071  0.00996018  0.72090696  1.0
  O  O13177  1  0.04132071  0.17662685  0.72090696  1.0
  O  O13178  1  0.04132071  0.34329352  0.72090696  1.0
  O  O13179  1  0.04132071  0.50996018  0.72090696  1.0
  O  O13180  1  0.04132071  0.67662685  0.72090696  1.0
  O  O13181  1  0.04132071  0.84329352  0.72090696  1.0
  O  O13182  1  0.12465404  0.00996018  0.72090696  1.0
  O  O13183  1  0.12465404  0.17662685  0.72090696  1.0
  O  O13184  1  0.12465404  0.34329352  0.72090696  1.0
  O  O13185  1  0.12465404  0.50996018  0.72090696  1.0
  O  O13186  1  0.12465404  0.67662685  0.72090696  1.0
  O  O13187  1  0.12465404  0.84329352  0.72090696  1.0
  O  O13188  1  0.20798738  0.00996018  0.72090696  1.0
  O  O13189  1  0.20798738  0.17662685  0.72090696  1.0
  O  O13190  1  0.20798738  0.34329352  0.72090696  1.0
  O  O13191  1  0.20798738  0.50996018  0.72090696  1.0
  O  O13192  1  0.20798738  0.67662685  0.72090696  1.0
  O  O13193  1  0.20798738  0.84329352  0.72090696  1.0
  O  O13194  1  0.29132071  0.00996018  0.72090696  1.0
  O  O13195  1  0.29132071  0.17662685  0.72090696  1.0
  O  O13196  1  0.29132071  0.34329352  0.72090696  1.0
  O  O13197  1  0.29132071  0.50996018  0.72090696  1.0
  O  O13198  1  0.29132071  0.67662685  0.72090696  1.0
  O  O13199  1  0.29132071  0.84329352  0.72090696  1.0
  O  O13200  1  0.37465404  0.00996018  0.72090696  1.0
  O  O13201  1  0.37465404  0.17662685  0.72090696  1.0
  O  O13202  1  0.37465404  0.34329352  0.72090696  1.0
  O  O13203  1  0.37465404  0.50996018  0.72090696  1.0
  O  O13204  1  0.37465404  0.67662685  0.72090696  1.0
  O  O13205  1  0.37465404  0.84329352  0.72090696  1.0
  O  O13206  1  0.45798738  0.00996018  0.72090696  1.0
  O  O13207  1  0.45798738  0.17662685  0.72090696  1.0
  O  O13208  1  0.45798738  0.34329352  0.72090696  1.0
  O  O13209  1  0.45798738  0.50996018  0.72090696  1.0
  O  O13210  1  0.45798738  0.67662685  0.72090696  1.0
  O  O13211  1  0.45798738  0.84329352  0.72090696  1.0
  O  O13212  1  0.54132071  0.00996018  0.72090696  1.0
  O  O13213  1  0.54132071  0.17662685  0.72090696  1.0
  O  O13214  1  0.54132071  0.34329352  0.72090696  1.0
  O  O13215  1  0.54132071  0.50996018  0.72090696  1.0
  O  O13216  1  0.54132071  0.67662685  0.72090696  1.0
  O  O13217  1  0.54132071  0.84329352  0.72090696  1.0
  O  O13218  1  0.62465404  0.00996018  0.72090696  1.0
  O  O13219  1  0.62465404  0.17662685  0.72090696  1.0
  O  O13220  1  0.62465404  0.34329352  0.72090696  1.0
  O  O13221  1  0.62465404  0.50996018  0.72090696  1.0
  O  O13222  1  0.62465404  0.67662685  0.72090696  1.0
  O  O13223  1  0.62465404  0.84329352  0.72090696  1.0
  O  O13224  1  0.70798738  0.00996018  0.72090696  1.0
  O  O13225  1  0.70798738  0.17662685  0.72090696  1.0
  O  O13226  1  0.70798738  0.34329352  0.72090696  1.0
  O  O13227  1  0.70798738  0.50996018  0.72090696  1.0
  O  O13228  1  0.70798738  0.67662685  0.72090696  1.0
  O  O13229  1  0.70798738  0.84329352  0.72090696  1.0
  O  O13230  1  0.79132071  0.00996018  0.72090696  1.0
  O  O13231  1  0.79132071  0.17662685  0.72090696  1.0
  O  O13232  1  0.79132071  0.34329352  0.72090696  1.0
  O  O13233  1  0.79132071  0.50996018  0.72090696  1.0
  O  O13234  1  0.79132071  0.67662685  0.72090696  1.0
  O  O13235  1  0.79132071  0.84329352  0.72090696  1.0
  O  O13236  1  0.87465404  0.00996018  0.72090696  1.0
  O  O13237  1  0.87465404  0.17662685  0.72090696  1.0
  O  O13238  1  0.87465404  0.34329352  0.72090696  1.0
  O  O13239  1  0.87465404  0.50996018  0.72090696  1.0
  O  O13240  1  0.87465404  0.67662685  0.72090696  1.0
  O  O13241  1  0.87465404  0.84329352  0.72090696  1.0
  O  O13242  1  0.95798738  0.00996018  0.72090696  1.0
  O  O13243  1  0.95798738  0.17662685  0.72090696  1.0
  O  O13244  1  0.95798738  0.34329352  0.72090696  1.0
  O  O13245  1  0.95798738  0.50996018  0.72090696  1.0
  O  O13246  1  0.95798738  0.67662685  0.72090696  1.0
  O  O13247  1  0.95798738  0.84329352  0.72090696  1.0
  O  O13248  1  0.06935841  0.00442690  0.75672860  1.0
  O  O13249  1  0.06935841  0.17109357  0.75672860  1.0
  O  O13250  1  0.06935841  0.33776024  0.75672860  1.0
  O  O13251  1  0.06935841  0.50442690  0.75672860  1.0
  O  O13252  1  0.06935841  0.67109357  0.75672860  1.0
  O  O13253  1  0.06935841  0.83776024  0.75672860  1.0
  O  O13254  1  0.15269174  0.00442690  0.75672860  1.0
  O  O13255  1  0.15269174  0.17109357  0.75672860  1.0
  O  O13256  1  0.15269174  0.33776024  0.75672860  1.0
  O  O13257  1  0.15269174  0.50442690  0.75672860  1.0
  O  O13258  1  0.15269174  0.67109357  0.75672860  1.0
  O  O13259  1  0.15269174  0.83776024  0.75672860  1.0
  O  O13260  1  0.23602508  0.00442690  0.75672860  1.0
  O  O13261  1  0.23602508  0.17109357  0.75672860  1.0
  O  O13262  1  0.23602508  0.33776024  0.75672860  1.0
  O  O13263  1  0.23602508  0.50442690  0.75672860  1.0
  O  O13264  1  0.23602508  0.67109357  0.75672860  1.0
  O  O13265  1  0.23602508  0.83776024  0.75672860  1.0
  O  O13266  1  0.31935841  0.00442690  0.75672860  1.0
  O  O13267  1  0.31935841  0.17109357  0.75672860  1.0
  O  O13268  1  0.31935841  0.33776024  0.75672860  1.0
  O  O13269  1  0.31935841  0.50442690  0.75672860  1.0
  O  O13270  1  0.31935841  0.67109357  0.75672860  1.0
  O  O13271  1  0.31935841  0.83776024  0.75672860  1.0
  O  O13272  1  0.40269174  0.00442690  0.75672860  1.0
  O  O13273  1  0.40269174  0.17109357  0.75672860  1.0
  O  O13274  1  0.40269174  0.33776024  0.75672860  1.0
  O  O13275  1  0.40269174  0.50442690  0.75672860  1.0
  O  O13276  1  0.40269174  0.67109357  0.75672860  1.0
  O  O13277  1  0.40269174  0.83776024  0.75672860  1.0
  O  O13278  1  0.48602508  0.00442690  0.75672860  1.0
  O  O13279  1  0.48602508  0.17109357  0.75672860  1.0
  O  O13280  1  0.48602508  0.33776024  0.75672860  1.0
  O  O13281  1  0.48602508  0.50442690  0.75672860  1.0
  O  O13282  1  0.48602508  0.67109357  0.75672860  1.0
  O  O13283  1  0.48602508  0.83776024  0.75672860  1.0
  O  O13284  1  0.56935841  0.00442690  0.75672860  1.0
  O  O13285  1  0.56935841  0.17109357  0.75672860  1.0
  O  O13286  1  0.56935841  0.33776024  0.75672860  1.0
  O  O13287  1  0.56935841  0.50442690  0.75672860  1.0
  O  O13288  1  0.56935841  0.67109357  0.75672860  1.0
  O  O13289  1  0.56935841  0.83776024  0.75672860  1.0
  O  O13290  1  0.65269174  0.00442690  0.75672860  1.0
  O  O13291  1  0.65269174  0.17109357  0.75672860  1.0
  O  O13292  1  0.65269174  0.33776024  0.75672860  1.0
  O  O13293  1  0.65269174  0.50442690  0.75672860  1.0
  O  O13294  1  0.65269174  0.67109357  0.75672860  1.0
  O  O13295  1  0.65269174  0.83776024  0.75672860  1.0
  O  O13296  1  0.73602508  0.00442690  0.75672860  1.0
  O  O13297  1  0.73602508  0.17109357  0.75672860  1.0
  O  O13298  1  0.73602508  0.33776024  0.75672860  1.0
  O  O13299  1  0.73602508  0.50442690  0.75672860  1.0
  O  O13300  1  0.73602508  0.67109357  0.75672860  1.0
  O  O13301  1  0.73602508  0.83776024  0.75672860  1.0
  O  O13302  1  0.81935841  0.00442690  0.75672860  1.0
  O  O13303  1  0.81935841  0.17109357  0.75672860  1.0
  O  O13304  1  0.81935841  0.33776024  0.75672860  1.0
  O  O13305  1  0.81935841  0.50442690  0.75672860  1.0
  O  O13306  1  0.81935841  0.67109357  0.75672860  1.0
  O  O13307  1  0.81935841  0.83776024  0.75672860  1.0
  O  O13308  1  0.90269174  0.00442690  0.75672860  1.0
  O  O13309  1  0.90269174  0.17109357  0.75672860  1.0
  O  O13310  1  0.90269174  0.33776024  0.75672860  1.0
  O  O13311  1  0.90269174  0.50442690  0.75672860  1.0
  O  O13312  1  0.90269174  0.67109357  0.75672860  1.0
  O  O13313  1  0.90269174  0.83776024  0.75672860  1.0
  O  O13314  1  0.98602508  0.00442690  0.75672860  1.0
  O  O13315  1  0.98602508  0.17109357  0.75672860  1.0
  O  O13316  1  0.98602508  0.33776024  0.75672860  1.0
  O  O13317  1  0.98602508  0.50442690  0.75672860  1.0
  O  O13318  1  0.98602508  0.67109357  0.75672860  1.0
  O  O13319  1  0.98602508  0.83776024  0.75672860  1.0
  O  O13320  1  0.00983460  0.01633167  0.68530003  1.0
  O  O13321  1  0.00983460  0.18299833  0.68530003  1.0
  O  O13322  1  0.00983460  0.34966500  0.68530003  1.0
  O  O13323  1  0.00983460  0.51633167  0.68530003  1.0
  O  O13324  1  0.00983460  0.68299833  0.68530003  1.0
  O  O13325  1  0.00983460  0.84966500  0.68530003  1.0
  O  O13326  1  0.09316793  0.01633167  0.68530003  1.0
  O  O13327  1  0.09316793  0.18299833  0.68530003  1.0
  O  O13328  1  0.09316793  0.34966500  0.68530003  1.0
  O  O13329  1  0.09316793  0.51633167  0.68530003  1.0
  O  O13330  1  0.09316793  0.68299833  0.68530003  1.0
  O  O13331  1  0.09316793  0.84966500  0.68530003  1.0
  O  O13332  1  0.17650127  0.01633167  0.68530003  1.0
  O  O13333  1  0.17650127  0.18299833  0.68530003  1.0
  O  O13334  1  0.17650127  0.34966500  0.68530003  1.0
  O  O13335  1  0.17650127  0.51633167  0.68530003  1.0
  O  O13336  1  0.17650127  0.68299833  0.68530003  1.0
  O  O13337  1  0.17650127  0.84966500  0.68530003  1.0
  O  O13338  1  0.25983460  0.01633167  0.68530003  1.0
  O  O13339  1  0.25983460  0.18299833  0.68530003  1.0
  O  O13340  1  0.25983460  0.34966500  0.68530003  1.0
  O  O13341  1  0.25983460  0.51633167  0.68530003  1.0
  O  O13342  1  0.25983460  0.68299833  0.68530003  1.0
  O  O13343  1  0.25983460  0.84966500  0.68530003  1.0
  O  O13344  1  0.34316793  0.01633167  0.68530003  1.0
  O  O13345  1  0.34316793  0.18299833  0.68530003  1.0
  O  O13346  1  0.34316793  0.34966500  0.68530003  1.0
  O  O13347  1  0.34316793  0.51633167  0.68530003  1.0
  O  O13348  1  0.34316793  0.68299833  0.68530003  1.0
  O  O13349  1  0.34316793  0.84966500  0.68530003  1.0
  O  O13350  1  0.42650127  0.01633167  0.68530003  1.0
  O  O13351  1  0.42650127  0.18299833  0.68530003  1.0
  O  O13352  1  0.42650127  0.34966500  0.68530003  1.0
  O  O13353  1  0.42650127  0.51633167  0.68530003  1.0
  O  O13354  1  0.42650127  0.68299833  0.68530003  1.0
  O  O13355  1  0.42650127  0.84966500  0.68530003  1.0
  O  O13356  1  0.50983460  0.01633167  0.68530003  1.0
  O  O13357  1  0.50983460  0.18299833  0.68530003  1.0
  O  O13358  1  0.50983460  0.34966500  0.68530003  1.0
  O  O13359  1  0.50983460  0.51633167  0.68530003  1.0
  O  O13360  1  0.50983460  0.68299833  0.68530003  1.0
  O  O13361  1  0.50983460  0.84966500  0.68530003  1.0
  O  O13362  1  0.59316793  0.01633167  0.68530003  1.0
  O  O13363  1  0.59316793  0.18299833  0.68530003  1.0
  O  O13364  1  0.59316793  0.34966500  0.68530003  1.0
  O  O13365  1  0.59316793  0.51633167  0.68530003  1.0
  O  O13366  1  0.59316793  0.68299833  0.68530003  1.0
  O  O13367  1  0.59316793  0.84966500  0.68530003  1.0
  O  O13368  1  0.67650127  0.01633167  0.68530003  1.0
  O  O13369  1  0.67650127  0.18299833  0.68530003  1.0
  O  O13370  1  0.67650127  0.34966500  0.68530003  1.0
  O  O13371  1  0.67650127  0.51633167  0.68530003  1.0
  O  O13372  1  0.67650127  0.68299833  0.68530003  1.0
  O  O13373  1  0.67650127  0.84966500  0.68530003  1.0
  O  O13374  1  0.75983460  0.01633167  0.68530003  1.0
  O  O13375  1  0.75983460  0.18299833  0.68530003  1.0
  O  O13376  1  0.75983460  0.34966500  0.68530003  1.0
  O  O13377  1  0.75983460  0.51633167  0.68530003  1.0
  O  O13378  1  0.75983460  0.68299833  0.68530003  1.0
  O  O13379  1  0.75983460  0.84966500  0.68530003  1.0
  O  O13380  1  0.84316793  0.01633167  0.68530003  1.0
  O  O13381  1  0.84316793  0.18299833  0.68530003  1.0
  O  O13382  1  0.84316793  0.34966500  0.68530003  1.0
  O  O13383  1  0.84316793  0.51633167  0.68530003  1.0
  O  O13384  1  0.84316793  0.68299833  0.68530003  1.0
  O  O13385  1  0.84316793  0.84966500  0.68530003  1.0
  O  O13386  1  0.92650127  0.01633167  0.68530003  1.0
  O  O13387  1  0.92650127  0.18299833  0.68530003  1.0
  O  O13388  1  0.92650127  0.34966500  0.68530003  1.0
  O  O13389  1  0.92650127  0.51633167  0.68530003  1.0
  O  O13390  1  0.92650127  0.68299833  0.68530003  1.0
  O  O13391  1  0.92650127  0.84966500  0.68530003  1.0
  O  O13392  1  0.06178041  0.06780606  0.65785574  1.0
  O  O13393  1  0.06178041  0.23447273  0.65785574  1.0
  O  O13394  1  0.06178041  0.40113939  0.65785574  1.0
  O  O13395  1  0.06178041  0.56780606  0.65785574  1.0
  O  O13396  1  0.06178041  0.73447273  0.65785574  1.0
  O  O13397  1  0.06178041  0.90113939  0.65785574  1.0
  O  O13398  1  0.14511374  0.06780606  0.65785574  1.0
  O  O13399  1  0.14511374  0.23447273  0.65785574  1.0
  O  O13400  1  0.14511374  0.40113939  0.65785574  1.0
  O  O13401  1  0.14511374  0.56780606  0.65785574  1.0
  O  O13402  1  0.14511374  0.73447273  0.65785574  1.0
  O  O13403  1  0.14511374  0.90113939  0.65785574  1.0
  O  O13404  1  0.22844707  0.06780606  0.65785574  1.0
  O  O13405  1  0.22844707  0.23447273  0.65785574  1.0
  O  O13406  1  0.22844707  0.40113939  0.65785574  1.0
  O  O13407  1  0.22844707  0.56780606  0.65785574  1.0
  O  O13408  1  0.22844707  0.73447273  0.65785574  1.0
  O  O13409  1  0.22844707  0.90113939  0.65785574  1.0
  O  O13410  1  0.31178041  0.06780606  0.65785574  1.0
  O  O13411  1  0.31178041  0.23447273  0.65785574  1.0
  O  O13412  1  0.31178041  0.40113939  0.65785574  1.0
  O  O13413  1  0.31178041  0.56780606  0.65785574  1.0
  O  O13414  1  0.31178041  0.73447273  0.65785574  1.0
  O  O13415  1  0.31178041  0.90113939  0.65785574  1.0
  O  O13416  1  0.39511374  0.06780606  0.65785574  1.0
  O  O13417  1  0.39511374  0.23447273  0.65785574  1.0
  O  O13418  1  0.39511374  0.40113939  0.65785574  1.0
  O  O13419  1  0.39511374  0.56780606  0.65785574  1.0
  O  O13420  1  0.39511374  0.73447273  0.65785574  1.0
  O  O13421  1  0.39511374  0.90113939  0.65785574  1.0
  O  O13422  1  0.47844707  0.06780606  0.65785574  1.0
  O  O13423  1  0.47844707  0.23447273  0.65785574  1.0
  O  O13424  1  0.47844707  0.40113939  0.65785574  1.0
  O  O13425  1  0.47844707  0.56780606  0.65785574  1.0
  O  O13426  1  0.47844707  0.73447273  0.65785574  1.0
  O  O13427  1  0.47844707  0.90113939  0.65785574  1.0
  O  O13428  1  0.56178041  0.06780606  0.65785574  1.0
  O  O13429  1  0.56178041  0.23447273  0.65785574  1.0
  O  O13430  1  0.56178041  0.40113939  0.65785574  1.0
  O  O13431  1  0.56178041  0.56780606  0.65785574  1.0
  O  O13432  1  0.56178041  0.73447273  0.65785574  1.0
  O  O13433  1  0.56178041  0.90113939  0.65785574  1.0
  O  O13434  1  0.64511374  0.06780606  0.65785574  1.0
  O  O13435  1  0.64511374  0.23447273  0.65785574  1.0
  O  O13436  1  0.64511374  0.40113939  0.65785574  1.0
  O  O13437  1  0.64511374  0.56780606  0.65785574  1.0
  O  O13438  1  0.64511374  0.73447273  0.65785574  1.0
  O  O13439  1  0.64511374  0.90113939  0.65785574  1.0
  O  O13440  1  0.72844707  0.06780606  0.65785574  1.0
  O  O13441  1  0.72844707  0.23447273  0.65785574  1.0
  O  O13442  1  0.72844707  0.40113939  0.65785574  1.0
  O  O13443  1  0.72844707  0.56780606  0.65785574  1.0
  O  O13444  1  0.72844707  0.73447273  0.65785574  1.0
  O  O13445  1  0.72844707  0.90113939  0.65785574  1.0
  O  O13446  1  0.81178041  0.06780606  0.65785574  1.0
  O  O13447  1  0.81178041  0.23447273  0.65785574  1.0
  O  O13448  1  0.81178041  0.40113939  0.65785574  1.0
  O  O13449  1  0.81178041  0.56780606  0.65785574  1.0
  O  O13450  1  0.81178041  0.73447273  0.65785574  1.0
  O  O13451  1  0.81178041  0.90113939  0.65785574  1.0
  O  O13452  1  0.89511374  0.06780606  0.65785574  1.0
  O  O13453  1  0.89511374  0.23447273  0.65785574  1.0
  O  O13454  1  0.89511374  0.40113939  0.65785574  1.0
  O  O13455  1  0.89511374  0.56780606  0.65785574  1.0
  O  O13456  1  0.89511374  0.73447273  0.65785574  1.0
  O  O13457  1  0.89511374  0.90113939  0.65785574  1.0
  O  O13458  1  0.97844707  0.06780606  0.65785574  1.0
  O  O13459  1  0.97844707  0.23447273  0.65785574  1.0
  O  O13460  1  0.97844707  0.40113939  0.65785574  1.0
  O  O13461  1  0.97844707  0.56780606  0.65785574  1.0
  O  O13462  1  0.97844707  0.73447273  0.65785574  1.0
  O  O13463  1  0.97844707  0.90113939  0.65785574  1.0
  O  O13464  1  0.03797088  0.05590130  0.72928432  1.0
  O  O13465  1  0.03797088  0.22256796  0.72928432  1.0
  O  O13466  1  0.03797088  0.38923463  0.72928432  1.0
  O  O13467  1  0.03797088  0.55590130  0.72928432  1.0
  O  O13468  1  0.03797088  0.72256796  0.72928432  1.0
  O  O13469  1  0.03797088  0.88923463  0.72928432  1.0
  O  O13470  1  0.12130422  0.05590130  0.72928432  1.0
  O  O13471  1  0.12130422  0.22256796  0.72928432  1.0
  O  O13472  1  0.12130422  0.38923463  0.72928432  1.0
  O  O13473  1  0.12130422  0.55590130  0.72928432  1.0
  O  O13474  1  0.12130422  0.72256796  0.72928432  1.0
  O  O13475  1  0.12130422  0.88923463  0.72928432  1.0
  O  O13476  1  0.20463755  0.05590130  0.72928432  1.0
  O  O13477  1  0.20463755  0.22256796  0.72928432  1.0
  O  O13478  1  0.20463755  0.38923463  0.72928432  1.0
  O  O13479  1  0.20463755  0.55590130  0.72928432  1.0
  O  O13480  1  0.20463755  0.72256796  0.72928432  1.0
  O  O13481  1  0.20463755  0.88923463  0.72928432  1.0
  O  O13482  1  0.28797088  0.05590130  0.72928432  1.0
  O  O13483  1  0.28797088  0.22256796  0.72928432  1.0
  O  O13484  1  0.28797088  0.38923463  0.72928432  1.0
  O  O13485  1  0.28797088  0.55590130  0.72928432  1.0
  O  O13486  1  0.28797088  0.72256796  0.72928432  1.0
  O  O13487  1  0.28797088  0.88923463  0.72928432  1.0
  O  O13488  1  0.37130422  0.05590130  0.72928432  1.0
  O  O13489  1  0.37130422  0.22256796  0.72928432  1.0
  O  O13490  1  0.37130422  0.38923463  0.72928432  1.0
  O  O13491  1  0.37130422  0.55590130  0.72928432  1.0
  O  O13492  1  0.37130422  0.72256796  0.72928432  1.0
  O  O13493  1  0.37130422  0.88923463  0.72928432  1.0
  O  O13494  1  0.45463755  0.05590130  0.72928432  1.0
  O  O13495  1  0.45463755  0.22256796  0.72928432  1.0
  O  O13496  1  0.45463755  0.38923463  0.72928432  1.0
  O  O13497  1  0.45463755  0.55590130  0.72928432  1.0
  O  O13498  1  0.45463755  0.72256796  0.72928432  1.0
  O  O13499  1  0.45463755  0.88923463  0.72928432  1.0
  O  O13500  1  0.53797088  0.05590130  0.72928432  1.0
  O  O13501  1  0.53797088  0.22256796  0.72928432  1.0
  O  O13502  1  0.53797088  0.38923463  0.72928432  1.0
  O  O13503  1  0.53797088  0.55590130  0.72928432  1.0
  O  O13504  1  0.53797088  0.72256796  0.72928432  1.0
  O  O13505  1  0.53797088  0.88923463  0.72928432  1.0
  O  O13506  1  0.62130422  0.05590130  0.72928432  1.0
  O  O13507  1  0.62130422  0.22256796  0.72928432  1.0
  O  O13508  1  0.62130422  0.38923463  0.72928432  1.0
  O  O13509  1  0.62130422  0.55590130  0.72928432  1.0
  O  O13510  1  0.62130422  0.72256796  0.72928432  1.0
  O  O13511  1  0.62130422  0.88923463  0.72928432  1.0
  O  O13512  1  0.70463755  0.05590130  0.72928432  1.0
  O  O13513  1  0.70463755  0.22256796  0.72928432  1.0
  O  O13514  1  0.70463755  0.38923463  0.72928432  1.0
  O  O13515  1  0.70463755  0.55590130  0.72928432  1.0
  O  O13516  1  0.70463755  0.72256796  0.72928432  1.0
  O  O13517  1  0.70463755  0.88923463  0.72928432  1.0
  O  O13518  1  0.78797088  0.05590130  0.72928432  1.0
  O  O13519  1  0.78797088  0.22256796  0.72928432  1.0
  O  O13520  1  0.78797088  0.38923463  0.72928432  1.0
  O  O13521  1  0.78797088  0.55590130  0.72928432  1.0
  O  O13522  1  0.78797088  0.72256796  0.72928432  1.0
  O  O13523  1  0.78797088  0.88923463  0.72928432  1.0
  O  O13524  1  0.87130422  0.05590130  0.72928432  1.0
  O  O13525  1  0.87130422  0.22256796  0.72928432  1.0
  O  O13526  1  0.87130422  0.38923463  0.72928432  1.0
  O  O13527  1  0.87130422  0.55590130  0.72928432  1.0
  O  O13528  1  0.87130422  0.72256796  0.72928432  1.0
  O  O13529  1  0.87130422  0.88923463  0.72928432  1.0
  O  O13530  1  0.95463755  0.05590130  0.72928432  1.0
  O  O13531  1  0.95463755  0.22256796  0.72928432  1.0
  O  O13532  1  0.95463755  0.38923463  0.72928432  1.0
  O  O13533  1  0.95463755  0.55590130  0.72928432  1.0
  O  O13534  1  0.95463755  0.72256796  0.72928432  1.0
  O  O13535  1  0.95463755  0.88923463  0.72928432  1.0
  O  O13536  1  0.02829998  0.02667705  0.76011509  1.0
  O  O13537  1  0.02829998  0.19334371  0.76011509  1.0
  O  O13538  1  0.02829998  0.36001038  0.76011509  1.0
  O  O13539  1  0.02829998  0.52667705  0.76011509  1.0
  O  O13540  1  0.02829998  0.69334371  0.76011509  1.0
  O  O13541  1  0.02829998  0.86001038  0.76011509  1.0
  O  O13542  1  0.11163332  0.02667705  0.76011509  1.0
  O  O13543  1  0.11163332  0.19334371  0.76011509  1.0
  O  O13544  1  0.11163332  0.36001038  0.76011509  1.0
  O  O13545  1  0.11163332  0.52667705  0.76011509  1.0
  O  O13546  1  0.11163332  0.69334371  0.76011509  1.0
  O  O13547  1  0.11163332  0.86001038  0.76011509  1.0
  O  O13548  1  0.19496665  0.02667705  0.76011509  1.0
  O  O13549  1  0.19496665  0.19334371  0.76011509  1.0
  O  O13550  1  0.19496665  0.36001038  0.76011509  1.0
  O  O13551  1  0.19496665  0.52667705  0.76011509  1.0
  O  O13552  1  0.19496665  0.69334371  0.76011509  1.0
  O  O13553  1  0.19496665  0.86001038  0.76011509  1.0
  O  O13554  1  0.27829998  0.02667705  0.76011509  1.0
  O  O13555  1  0.27829998  0.19334371  0.76011509  1.0
  O  O13556  1  0.27829998  0.36001038  0.76011509  1.0
  O  O13557  1  0.27829998  0.52667705  0.76011509  1.0
  O  O13558  1  0.27829998  0.69334371  0.76011509  1.0
  O  O13559  1  0.27829998  0.86001038  0.76011509  1.0
  O  O13560  1  0.36163332  0.02667705  0.76011509  1.0
  O  O13561  1  0.36163332  0.19334371  0.76011509  1.0
  O  O13562  1  0.36163332  0.36001038  0.76011509  1.0
  O  O13563  1  0.36163332  0.52667705  0.76011509  1.0
  O  O13564  1  0.36163332  0.69334371  0.76011509  1.0
  O  O13565  1  0.36163332  0.86001038  0.76011509  1.0
  O  O13566  1  0.44496665  0.02667705  0.76011509  1.0
  O  O13567  1  0.44496665  0.19334371  0.76011509  1.0
  O  O13568  1  0.44496665  0.36001038  0.76011509  1.0
  O  O13569  1  0.44496665  0.52667705  0.76011509  1.0
  O  O13570  1  0.44496665  0.69334371  0.76011509  1.0
  O  O13571  1  0.44496665  0.86001038  0.76011509  1.0
  O  O13572  1  0.52829998  0.02667705  0.76011509  1.0
  O  O13573  1  0.52829998  0.19334371  0.76011509  1.0
  O  O13574  1  0.52829998  0.36001038  0.76011509  1.0
  O  O13575  1  0.52829998  0.52667705  0.76011509  1.0
  O  O13576  1  0.52829998  0.69334371  0.76011509  1.0
  O  O13577  1  0.52829998  0.86001038  0.76011509  1.0
  O  O13578  1  0.61163332  0.02667705  0.76011509  1.0
  O  O13579  1  0.61163332  0.19334371  0.76011509  1.0
  O  O13580  1  0.61163332  0.36001038  0.76011509  1.0
  O  O13581  1  0.61163332  0.52667705  0.76011509  1.0
  O  O13582  1  0.61163332  0.69334371  0.76011509  1.0
  O  O13583  1  0.61163332  0.86001038  0.76011509  1.0
  O  O13584  1  0.69496665  0.02667705  0.76011509  1.0
  O  O13585  1  0.69496665  0.19334371  0.76011509  1.0
  O  O13586  1  0.69496665  0.36001038  0.76011509  1.0
  O  O13587  1  0.69496665  0.52667705  0.76011509  1.0
  O  O13588  1  0.69496665  0.69334371  0.76011509  1.0
  O  O13589  1  0.69496665  0.86001038  0.76011509  1.0
  O  O13590  1  0.77829998  0.02667705  0.76011509  1.0
  O  O13591  1  0.77829998  0.19334371  0.76011509  1.0
  O  O13592  1  0.77829998  0.36001038  0.76011509  1.0
  O  O13593  1  0.77829998  0.52667705  0.76011509  1.0
  O  O13594  1  0.77829998  0.69334371  0.76011509  1.0
  O  O13595  1  0.77829998  0.86001038  0.76011509  1.0
  O  O13596  1  0.86163332  0.02667705  0.76011509  1.0
  O  O13597  1  0.86163332  0.19334371  0.76011509  1.0
  O  O13598  1  0.86163332  0.36001038  0.76011509  1.0
  O  O13599  1  0.86163332  0.52667705  0.76011509  1.0
  O  O13600  1  0.86163332  0.69334371  0.76011509  1.0
  O  O13601  1  0.86163332  0.86001038  0.76011509  1.0
  O  O13602  1  0.94496665  0.02667705  0.76011509  1.0
  O  O13603  1  0.94496665  0.19334371  0.76011509  1.0
  O  O13604  1  0.94496665  0.36001038  0.76011509  1.0
  O  O13605  1  0.94496665  0.52667705  0.76011509  1.0
  O  O13606  1  0.94496665  0.69334371  0.76011509  1.0
  O  O13607  1  0.94496665  0.86001038  0.76011509  1.0
  O  O13608  1  0.05210951  0.03858181  0.68868652  1.0
  O  O13609  1  0.05210951  0.20524848  0.68868652  1.0
  O  O13610  1  0.05210951  0.37191514  0.68868652  1.0
  O  O13611  1  0.05210951  0.53858181  0.68868652  1.0
  O  O13612  1  0.05210951  0.70524848  0.68868652  1.0
  O  O13613  1  0.05210951  0.87191514  0.68868652  1.0
  O  O13614  1  0.13544284  0.03858181  0.68868652  1.0
  O  O13615  1  0.13544284  0.20524848  0.68868652  1.0
  O  O13616  1  0.13544284  0.37191514  0.68868652  1.0
  O  O13617  1  0.13544284  0.53858181  0.68868652  1.0
  O  O13618  1  0.13544284  0.70524848  0.68868652  1.0
  O  O13619  1  0.13544284  0.87191514  0.68868652  1.0
  O  O13620  1  0.21877617  0.03858181  0.68868652  1.0
  O  O13621  1  0.21877617  0.20524848  0.68868652  1.0
  O  O13622  1  0.21877617  0.37191514  0.68868652  1.0
  O  O13623  1  0.21877617  0.53858181  0.68868652  1.0
  O  O13624  1  0.21877617  0.70524848  0.68868652  1.0
  O  O13625  1  0.21877617  0.87191514  0.68868652  1.0
  O  O13626  1  0.30210951  0.03858181  0.68868652  1.0
  O  O13627  1  0.30210951  0.20524848  0.68868652  1.0
  O  O13628  1  0.30210951  0.37191514  0.68868652  1.0
  O  O13629  1  0.30210951  0.53858181  0.68868652  1.0
  O  O13630  1  0.30210951  0.70524848  0.68868652  1.0
  O  O13631  1  0.30210951  0.87191514  0.68868652  1.0
  O  O13632  1  0.38544284  0.03858181  0.68868652  1.0
  O  O13633  1  0.38544284  0.20524848  0.68868652  1.0
  O  O13634  1  0.38544284  0.37191514  0.68868652  1.0
  O  O13635  1  0.38544284  0.53858181  0.68868652  1.0
  O  O13636  1  0.38544284  0.70524848  0.68868652  1.0
  O  O13637  1  0.38544284  0.87191514  0.68868652  1.0
  O  O13638  1  0.46877617  0.03858181  0.68868652  1.0
  O  O13639  1  0.46877617  0.20524848  0.68868652  1.0
  O  O13640  1  0.46877617  0.37191514  0.68868652  1.0
  O  O13641  1  0.46877617  0.53858181  0.68868652  1.0
  O  O13642  1  0.46877617  0.70524848  0.68868652  1.0
  O  O13643  1  0.46877617  0.87191514  0.68868652  1.0
  O  O13644  1  0.55210951  0.03858181  0.68868652  1.0
  O  O13645  1  0.55210951  0.20524848  0.68868652  1.0
  O  O13646  1  0.55210951  0.37191514  0.68868652  1.0
  O  O13647  1  0.55210951  0.53858181  0.68868652  1.0
  O  O13648  1  0.55210951  0.70524848  0.68868652  1.0
  O  O13649  1  0.55210951  0.87191514  0.68868652  1.0
  O  O13650  1  0.63544284  0.03858181  0.68868652  1.0
  O  O13651  1  0.63544284  0.20524848  0.68868652  1.0
  O  O13652  1  0.63544284  0.37191514  0.68868652  1.0
  O  O13653  1  0.63544284  0.53858181  0.68868652  1.0
  O  O13654  1  0.63544284  0.70524848  0.68868652  1.0
  O  O13655  1  0.63544284  0.87191514  0.68868652  1.0
  O  O13656  1  0.71877617  0.03858181  0.68868652  1.0
  O  O13657  1  0.71877617  0.20524848  0.68868652  1.0
  O  O13658  1  0.71877617  0.37191514  0.68868652  1.0
  O  O13659  1  0.71877617  0.53858181  0.68868652  1.0
  O  O13660  1  0.71877617  0.70524848  0.68868652  1.0
  O  O13661  1  0.71877617  0.87191514  0.68868652  1.0
  O  O13662  1  0.80210951  0.03858181  0.68868652  1.0
  O  O13663  1  0.80210951  0.20524848  0.68868652  1.0
  O  O13664  1  0.80210951  0.37191514  0.68868652  1.0
  O  O13665  1  0.80210951  0.53858181  0.68868652  1.0
  O  O13666  1  0.80210951  0.70524848  0.68868652  1.0
  O  O13667  1  0.80210951  0.87191514  0.68868652  1.0
  O  O13668  1  0.88544284  0.03858181  0.68868652  1.0
  O  O13669  1  0.88544284  0.20524848  0.68868652  1.0
  O  O13670  1  0.88544284  0.37191514  0.68868652  1.0
  O  O13671  1  0.88544284  0.53858181  0.68868652  1.0
  O  O13672  1  0.88544284  0.70524848  0.68868652  1.0
  O  O13673  1  0.88544284  0.87191514  0.68868652  1.0
  O  O13674  1  0.96877617  0.03858181  0.68868652  1.0
  O  O13675  1  0.96877617  0.20524848  0.68868652  1.0
  O  O13676  1  0.96877617  0.37191514  0.68868652  1.0
  O  O13677  1  0.96877617  0.53858181  0.68868652  1.0
  O  O13678  1  0.96877617  0.70524848  0.68868652  1.0
  O  O13679  1  0.96877617  0.87191514  0.68868652  1.0
