# generated using pymatgen
data_Ti27O34
_symmetry_space_group_name_H-M   'P 1'
_cell_length_a   61.34317272
_cell_length_b   63.78965197
_cell_length_c   65.33097425
_cell_angle_alpha   93.92424634
_cell_angle_beta   92.17127106
_cell_angle_gamma   85.06217195
_symmetry_Int_Tables_number   1
_chemical_formula_structural   Ti27O34
_chemical_formula_sum   'Ti5832 O7344'
_cell_volume   253966.37887248
_cell_formula_units_Z   216
loop_
 _symmetry_equiv_pos_site_id
 _symmetry_equiv_pos_as_xyz
  1  'x, y, z'
loop_
 _atom_site_type_symbol
 _atom_site_label
 _atom_site_symmetry_multiplicity
 _atom_site_fract_x
 _atom_site_fract_y
 _atom_site_fract_z
 _atom_site_occupancy
  Ti  Ti0  1  0.05478855  0.11504446  0.24278700  1.0
  Ti  Ti1  1  0.05478855  0.28171113  0.24278700  1.0
  Ti  Ti2  1  0.05478855  0.44837779  0.24278700  1.0
  Ti  Ti3  1  0.05478855  0.61504446  0.24278700  1.0
  Ti  Ti4  1  0.05478855  0.78171113  0.24278700  1.0
  Ti  Ti5  1  0.05478855  0.94837779  0.24278700  1.0
  Ti  Ti6  1  0.13812189  0.11504446  0.24278700  1.0
  Ti  Ti7  1  0.13812189  0.28171113  0.24278700  1.0
  Ti  Ti8  1  0.13812189  0.44837779  0.24278700  1.0
  Ti  Ti9  1  0.13812189  0.61504446  0.24278700  1.0
  Ti  Ti10  1  0.13812189  0.78171113  0.24278700  1.0
  Ti  Ti11  1  0.13812189  0.94837779  0.24278700  1.0
  Ti  Ti12  1  0.22145522  0.11504446  0.24278700  1.0
  Ti  Ti13  1  0.22145522  0.28171113  0.24278700  1.0
  Ti  Ti14  1  0.22145522  0.44837779  0.24278700  1.0
  Ti  Ti15  1  0.22145522  0.61504446  0.24278700  1.0
  Ti  Ti16  1  0.22145522  0.78171113  0.24278700  1.0
  Ti  Ti17  1  0.22145522  0.94837779  0.24278700  1.0
  Ti  Ti18  1  0.30478855  0.11504446  0.24278700  1.0
  Ti  Ti19  1  0.30478855  0.28171113  0.24278700  1.0
  Ti  Ti20  1  0.30478855  0.44837779  0.24278700  1.0
  Ti  Ti21  1  0.30478855  0.61504446  0.24278700  1.0
  Ti  Ti22  1  0.30478855  0.78171113  0.24278700  1.0
  Ti  Ti23  1  0.30478855  0.94837779  0.24278700  1.0
  Ti  Ti24  1  0.38812189  0.11504446  0.24278700  1.0
  Ti  Ti25  1  0.38812189  0.28171113  0.24278700  1.0
  Ti  Ti26  1  0.38812189  0.44837779  0.24278700  1.0
  Ti  Ti27  1  0.38812189  0.61504446  0.24278700  1.0
  Ti  Ti28  1  0.38812189  0.78171113  0.24278700  1.0
  Ti  Ti29  1  0.38812189  0.94837779  0.24278700  1.0
  Ti  Ti30  1  0.47145522  0.11504446  0.24278700  1.0
  Ti  Ti31  1  0.47145522  0.28171113  0.24278700  1.0
  Ti  Ti32  1  0.47145522  0.44837779  0.24278700  1.0
  Ti  Ti33  1  0.47145522  0.61504446  0.24278700  1.0
  Ti  Ti34  1  0.47145522  0.78171113  0.24278700  1.0
  Ti  Ti35  1  0.47145522  0.94837779  0.24278700  1.0
  Ti  Ti36  1  0.55478855  0.11504446  0.24278700  1.0
  Ti  Ti37  1  0.55478855  0.28171113  0.24278700  1.0
  Ti  Ti38  1  0.55478855  0.44837779  0.24278700  1.0
  Ti  Ti39  1  0.55478855  0.61504446  0.24278700  1.0
  Ti  Ti40  1  0.55478855  0.78171113  0.24278700  1.0
  Ti  Ti41  1  0.55478855  0.94837779  0.24278700  1.0
  Ti  Ti42  1  0.63812189  0.11504446  0.24278700  1.0
  Ti  Ti43  1  0.63812189  0.28171113  0.24278700  1.0
  Ti  Ti44  1  0.63812189  0.44837779  0.24278700  1.0
  Ti  Ti45  1  0.63812189  0.61504446  0.24278700  1.0
  Ti  Ti46  1  0.63812189  0.78171113  0.24278700  1.0
  Ti  Ti47  1  0.63812189  0.94837779  0.24278700  1.0
  Ti  Ti48  1  0.72145522  0.11504446  0.24278700  1.0
  Ti  Ti49  1  0.72145522  0.28171113  0.24278700  1.0
  Ti  Ti50  1  0.72145522  0.44837779  0.24278700  1.0
  Ti  Ti51  1  0.72145522  0.61504446  0.24278700  1.0
  Ti  Ti52  1  0.72145522  0.78171113  0.24278700  1.0
  Ti  Ti53  1  0.72145522  0.94837779  0.24278700  1.0
  Ti  Ti54  1  0.80478855  0.11504446  0.24278700  1.0
  Ti  Ti55  1  0.80478855  0.28171113  0.24278700  1.0
  Ti  Ti56  1  0.80478855  0.44837779  0.24278700  1.0
  Ti  Ti57  1  0.80478855  0.61504446  0.24278700  1.0
  Ti  Ti58  1  0.80478855  0.78171113  0.24278700  1.0
  Ti  Ti59  1  0.80478855  0.94837779  0.24278700  1.0
  Ti  Ti60  1  0.88812189  0.11504446  0.24278700  1.0
  Ti  Ti61  1  0.88812189  0.28171113  0.24278700  1.0
  Ti  Ti62  1  0.88812189  0.44837779  0.24278700  1.0
  Ti  Ti63  1  0.88812189  0.61504446  0.24278700  1.0
  Ti  Ti64  1  0.88812189  0.78171113  0.24278700  1.0
  Ti  Ti65  1  0.88812189  0.94837779  0.24278700  1.0
  Ti  Ti66  1  0.97145522  0.11504446  0.24278700  1.0
  Ti  Ti67  1  0.97145522  0.28171113  0.24278700  1.0
  Ti  Ti68  1  0.97145522  0.44837779  0.24278700  1.0
  Ti  Ti69  1  0.97145522  0.61504446  0.24278700  1.0
  Ti  Ti70  1  0.97145522  0.78171113  0.24278700  1.0
  Ti  Ti71  1  0.97145522  0.94837779  0.24278700  1.0
  Ti  Ti72  1  0.03097903  0.10313970  0.31421557  1.0
  Ti  Ti73  1  0.03097903  0.26980636  0.31421557  1.0
  Ti  Ti74  1  0.03097903  0.43647303  0.31421557  1.0
  Ti  Ti75  1  0.03097903  0.60313970  0.31421557  1.0
  Ti  Ti76  1  0.03097903  0.76980636  0.31421557  1.0
  Ti  Ti77  1  0.03097903  0.93647303  0.31421557  1.0
  Ti  Ti78  1  0.11431236  0.10313970  0.31421557  1.0
  Ti  Ti79  1  0.11431236  0.26980636  0.31421557  1.0
  Ti  Ti80  1  0.11431236  0.43647303  0.31421557  1.0
  Ti  Ti81  1  0.11431236  0.60313970  0.31421557  1.0
  Ti  Ti82  1  0.11431236  0.76980636  0.31421557  1.0
  Ti  Ti83  1  0.11431236  0.93647303  0.31421557  1.0
  Ti  Ti84  1  0.19764570  0.10313970  0.31421557  1.0
  Ti  Ti85  1  0.19764570  0.26980636  0.31421557  1.0
  Ti  Ti86  1  0.19764570  0.43647303  0.31421557  1.0
  Ti  Ti87  1  0.19764570  0.60313970  0.31421557  1.0
  Ti  Ti88  1  0.19764570  0.76980636  0.31421557  1.0
  Ti  Ti89  1  0.19764570  0.93647303  0.31421557  1.0
  Ti  Ti90  1  0.28097903  0.10313970  0.31421557  1.0
  Ti  Ti91  1  0.28097903  0.26980636  0.31421557  1.0
  Ti  Ti92  1  0.28097903  0.43647303  0.31421557  1.0
  Ti  Ti93  1  0.28097903  0.60313970  0.31421557  1.0
  Ti  Ti94  1  0.28097903  0.76980636  0.31421557  1.0
  Ti  Ti95  1  0.28097903  0.93647303  0.31421557  1.0
  Ti  Ti96  1  0.36431236  0.10313970  0.31421557  1.0
  Ti  Ti97  1  0.36431236  0.26980636  0.31421557  1.0
  Ti  Ti98  1  0.36431236  0.43647303  0.31421557  1.0
  Ti  Ti99  1  0.36431236  0.60313970  0.31421557  1.0
  Ti  Ti100  1  0.36431236  0.76980636  0.31421557  1.0
  Ti  Ti101  1  0.36431236  0.93647303  0.31421557  1.0
  Ti  Ti102  1  0.44764570  0.10313970  0.31421557  1.0
  Ti  Ti103  1  0.44764570  0.26980636  0.31421557  1.0
  Ti  Ti104  1  0.44764570  0.43647303  0.31421557  1.0
  Ti  Ti105  1  0.44764570  0.60313970  0.31421557  1.0
  Ti  Ti106  1  0.44764570  0.76980636  0.31421557  1.0
  Ti  Ti107  1  0.44764570  0.93647303  0.31421557  1.0
  Ti  Ti108  1  0.53097903  0.10313970  0.31421557  1.0
  Ti  Ti109  1  0.53097903  0.26980636  0.31421557  1.0
  Ti  Ti110  1  0.53097903  0.43647303  0.31421557  1.0
  Ti  Ti111  1  0.53097903  0.60313970  0.31421557  1.0
  Ti  Ti112  1  0.53097903  0.76980636  0.31421557  1.0
  Ti  Ti113  1  0.53097903  0.93647303  0.31421557  1.0
  Ti  Ti114  1  0.61431236  0.10313970  0.31421557  1.0
  Ti  Ti115  1  0.61431236  0.26980636  0.31421557  1.0
  Ti  Ti116  1  0.61431236  0.43647303  0.31421557  1.0
  Ti  Ti117  1  0.61431236  0.60313970  0.31421557  1.0
  Ti  Ti118  1  0.61431236  0.76980636  0.31421557  1.0
  Ti  Ti119  1  0.61431236  0.93647303  0.31421557  1.0
  Ti  Ti120  1  0.69764570  0.10313970  0.31421557  1.0
  Ti  Ti121  1  0.69764570  0.26980636  0.31421557  1.0
  Ti  Ti122  1  0.69764570  0.43647303  0.31421557  1.0
  Ti  Ti123  1  0.69764570  0.60313970  0.31421557  1.0
  Ti  Ti124  1  0.69764570  0.76980636  0.31421557  1.0
  Ti  Ti125  1  0.69764570  0.93647303  0.31421557  1.0
  Ti  Ti126  1  0.78097903  0.10313970  0.31421557  1.0
  Ti  Ti127  1  0.78097903  0.26980636  0.31421557  1.0
  Ti  Ti128  1  0.78097903  0.43647303  0.31421557  1.0
  Ti  Ti129  1  0.78097903  0.60313970  0.31421557  1.0
  Ti  Ti130  1  0.78097903  0.76980636  0.31421557  1.0
  Ti  Ti131  1  0.78097903  0.93647303  0.31421557  1.0
  Ti  Ti132  1  0.86431236  0.10313970  0.31421557  1.0
  Ti  Ti133  1  0.86431236  0.26980636  0.31421557  1.0
  Ti  Ti134  1  0.86431236  0.43647303  0.31421557  1.0
  Ti  Ti135  1  0.86431236  0.60313970  0.31421557  1.0
  Ti  Ti136  1  0.86431236  0.76980636  0.31421557  1.0
  Ti  Ti137  1  0.86431236  0.93647303  0.31421557  1.0
  Ti  Ti138  1  0.94764570  0.10313970  0.31421557  1.0
  Ti  Ti139  1  0.94764570  0.26980636  0.31421557  1.0
  Ti  Ti140  1  0.94764570  0.43647303  0.31421557  1.0
  Ti  Ti141  1  0.94764570  0.60313970  0.31421557  1.0
  Ti  Ti142  1  0.94764570  0.76980636  0.31421557  1.0
  Ti  Ti143  1  0.94764570  0.93647303  0.31421557  1.0
  Ti  Ti144  1  0.06003820  0.02232532  0.22124194  1.0
  Ti  Ti145  1  0.06003820  0.18899199  0.22124194  1.0
  Ti  Ti146  1  0.06003820  0.35565865  0.22124194  1.0
  Ti  Ti147  1  0.06003820  0.52232532  0.22124194  1.0
  Ti  Ti148  1  0.06003820  0.68899199  0.22124194  1.0
  Ti  Ti149  1  0.06003820  0.85565865  0.22124194  1.0
  Ti  Ti150  1  0.14337153  0.02232532  0.22124194  1.0
  Ti  Ti151  1  0.14337153  0.18899199  0.22124194  1.0
  Ti  Ti152  1  0.14337153  0.35565865  0.22124194  1.0
  Ti  Ti153  1  0.14337153  0.52232532  0.22124194  1.0
  Ti  Ti154  1  0.14337153  0.68899199  0.22124194  1.0
  Ti  Ti155  1  0.14337153  0.85565865  0.22124194  1.0
  Ti  Ti156  1  0.22670486  0.02232532  0.22124194  1.0
  Ti  Ti157  1  0.22670486  0.18899199  0.22124194  1.0
  Ti  Ti158  1  0.22670486  0.35565865  0.22124194  1.0
  Ti  Ti159  1  0.22670486  0.52232532  0.22124194  1.0
  Ti  Ti160  1  0.22670486  0.68899199  0.22124194  1.0
  Ti  Ti161  1  0.22670486  0.85565865  0.22124194  1.0
  Ti  Ti162  1  0.31003820  0.02232532  0.22124194  1.0
  Ti  Ti163  1  0.31003820  0.18899199  0.22124194  1.0
  Ti  Ti164  1  0.31003820  0.35565865  0.22124194  1.0
  Ti  Ti165  1  0.31003820  0.52232532  0.22124194  1.0
  Ti  Ti166  1  0.31003820  0.68899199  0.22124194  1.0
  Ti  Ti167  1  0.31003820  0.85565865  0.22124194  1.0
  Ti  Ti168  1  0.39337153  0.02232532  0.22124194  1.0
  Ti  Ti169  1  0.39337153  0.18899199  0.22124194  1.0
  Ti  Ti170  1  0.39337153  0.35565865  0.22124194  1.0
  Ti  Ti171  1  0.39337153  0.52232532  0.22124194  1.0
  Ti  Ti172  1  0.39337153  0.68899199  0.22124194  1.0
  Ti  Ti173  1  0.39337153  0.85565865  0.22124194  1.0
  Ti  Ti174  1  0.47670486  0.02232532  0.22124194  1.0
  Ti  Ti175  1  0.47670486  0.18899199  0.22124194  1.0
  Ti  Ti176  1  0.47670486  0.35565865  0.22124194  1.0
  Ti  Ti177  1  0.47670486  0.52232532  0.22124194  1.0
  Ti  Ti178  1  0.47670486  0.68899199  0.22124194  1.0
  Ti  Ti179  1  0.47670486  0.85565865  0.22124194  1.0
  Ti  Ti180  1  0.56003820  0.02232532  0.22124194  1.0
  Ti  Ti181  1  0.56003820  0.18899199  0.22124194  1.0
  Ti  Ti182  1  0.56003820  0.35565865  0.22124194  1.0
  Ti  Ti183  1  0.56003820  0.52232532  0.22124194  1.0
  Ti  Ti184  1  0.56003820  0.68899199  0.22124194  1.0
  Ti  Ti185  1  0.56003820  0.85565865  0.22124194  1.0
  Ti  Ti186  1  0.64337153  0.02232532  0.22124194  1.0
  Ti  Ti187  1  0.64337153  0.18899199  0.22124194  1.0
  Ti  Ti188  1  0.64337153  0.35565865  0.22124194  1.0
  Ti  Ti189  1  0.64337153  0.52232532  0.22124194  1.0
  Ti  Ti190  1  0.64337153  0.68899199  0.22124194  1.0
  Ti  Ti191  1  0.64337153  0.85565865  0.22124194  1.0
  Ti  Ti192  1  0.72670486  0.02232532  0.22124194  1.0
  Ti  Ti193  1  0.72670486  0.18899199  0.22124194  1.0
  Ti  Ti194  1  0.72670486  0.35565865  0.22124194  1.0
  Ti  Ti195  1  0.72670486  0.52232532  0.22124194  1.0
  Ti  Ti196  1  0.72670486  0.68899199  0.22124194  1.0
  Ti  Ti197  1  0.72670486  0.85565865  0.22124194  1.0
  Ti  Ti198  1  0.81003820  0.02232532  0.22124194  1.0
  Ti  Ti199  1  0.81003820  0.18899199  0.22124194  1.0
  Ti  Ti200  1  0.81003820  0.35565865  0.22124194  1.0
  Ti  Ti201  1  0.81003820  0.52232532  0.22124194  1.0
  Ti  Ti202  1  0.81003820  0.68899199  0.22124194  1.0
  Ti  Ti203  1  0.81003820  0.85565865  0.22124194  1.0
  Ti  Ti204  1  0.89337153  0.02232532  0.22124194  1.0
  Ti  Ti205  1  0.89337153  0.18899199  0.22124194  1.0
  Ti  Ti206  1  0.89337153  0.35565865  0.22124194  1.0
  Ti  Ti207  1  0.89337153  0.52232532  0.22124194  1.0
  Ti  Ti208  1  0.89337153  0.68899199  0.22124194  1.0
  Ti  Ti209  1  0.89337153  0.85565865  0.22124194  1.0
  Ti  Ti210  1  0.97670486  0.02232532  0.22124194  1.0
  Ti  Ti211  1  0.97670486  0.18899199  0.22124194  1.0
  Ti  Ti212  1  0.97670486  0.35565865  0.22124194  1.0
  Ti  Ti213  1  0.97670486  0.52232532  0.22124194  1.0
  Ti  Ti214  1  0.97670486  0.68899199  0.22124194  1.0
  Ti  Ti215  1  0.97670486  0.85565865  0.22124194  1.0
  Ti  Ti216  1  0.03622867  0.01042056  0.29267051  1.0
  Ti  Ti217  1  0.03622867  0.17708722  0.29267051  1.0
  Ti  Ti218  1  0.03622867  0.34375389  0.29267051  1.0
  Ti  Ti219  1  0.03622867  0.51042056  0.29267051  1.0
  Ti  Ti220  1  0.03622867  0.67708722  0.29267051  1.0
  Ti  Ti221  1  0.03622867  0.84375389  0.29267051  1.0
  Ti  Ti222  1  0.11956201  0.01042056  0.29267051  1.0
  Ti  Ti223  1  0.11956201  0.17708722  0.29267051  1.0
  Ti  Ti224  1  0.11956201  0.34375389  0.29267051  1.0
  Ti  Ti225  1  0.11956201  0.51042056  0.29267051  1.0
  Ti  Ti226  1  0.11956201  0.67708722  0.29267051  1.0
  Ti  Ti227  1  0.11956201  0.84375389  0.29267051  1.0
  Ti  Ti228  1  0.20289534  0.01042056  0.29267051  1.0
  Ti  Ti229  1  0.20289534  0.17708722  0.29267051  1.0
  Ti  Ti230  1  0.20289534  0.34375389  0.29267051  1.0
  Ti  Ti231  1  0.20289534  0.51042056  0.29267051  1.0
  Ti  Ti232  1  0.20289534  0.67708722  0.29267051  1.0
  Ti  Ti233  1  0.20289534  0.84375389  0.29267051  1.0
  Ti  Ti234  1  0.28622867  0.01042056  0.29267051  1.0
  Ti  Ti235  1  0.28622867  0.17708722  0.29267051  1.0
  Ti  Ti236  1  0.28622867  0.34375389  0.29267051  1.0
  Ti  Ti237  1  0.28622867  0.51042056  0.29267051  1.0
  Ti  Ti238  1  0.28622867  0.67708722  0.29267051  1.0
  Ti  Ti239  1  0.28622867  0.84375389  0.29267051  1.0
  Ti  Ti240  1  0.36956201  0.01042056  0.29267051  1.0
  Ti  Ti241  1  0.36956201  0.17708722  0.29267051  1.0
  Ti  Ti242  1  0.36956201  0.34375389  0.29267051  1.0
  Ti  Ti243  1  0.36956201  0.51042056  0.29267051  1.0
  Ti  Ti244  1  0.36956201  0.67708722  0.29267051  1.0
  Ti  Ti245  1  0.36956201  0.84375389  0.29267051  1.0
  Ti  Ti246  1  0.45289534  0.01042056  0.29267051  1.0
  Ti  Ti247  1  0.45289534  0.17708722  0.29267051  1.0
  Ti  Ti248  1  0.45289534  0.34375389  0.29267051  1.0
  Ti  Ti249  1  0.45289534  0.51042056  0.29267051  1.0
  Ti  Ti250  1  0.45289534  0.67708722  0.29267051  1.0
  Ti  Ti251  1  0.45289534  0.84375389  0.29267051  1.0
  Ti  Ti252  1  0.53622867  0.01042056  0.29267051  1.0
  Ti  Ti253  1  0.53622867  0.17708722  0.29267051  1.0
  Ti  Ti254  1  0.53622867  0.34375389  0.29267051  1.0
  Ti  Ti255  1  0.53622867  0.51042056  0.29267051  1.0
  Ti  Ti256  1  0.53622867  0.67708722  0.29267051  1.0
  Ti  Ti257  1  0.53622867  0.84375389  0.29267051  1.0
  Ti  Ti258  1  0.61956201  0.01042056  0.29267051  1.0
  Ti  Ti259  1  0.61956201  0.17708722  0.29267051  1.0
  Ti  Ti260  1  0.61956201  0.34375389  0.29267051  1.0
  Ti  Ti261  1  0.61956201  0.51042056  0.29267051  1.0
  Ti  Ti262  1  0.61956201  0.67708722  0.29267051  1.0
  Ti  Ti263  1  0.61956201  0.84375389  0.29267051  1.0
  Ti  Ti264  1  0.70289534  0.01042056  0.29267051  1.0
  Ti  Ti265  1  0.70289534  0.17708722  0.29267051  1.0
  Ti  Ti266  1  0.70289534  0.34375389  0.29267051  1.0
  Ti  Ti267  1  0.70289534  0.51042056  0.29267051  1.0
  Ti  Ti268  1  0.70289534  0.67708722  0.29267051  1.0
  Ti  Ti269  1  0.70289534  0.84375389  0.29267051  1.0
  Ti  Ti270  1  0.78622867  0.01042056  0.29267051  1.0
  Ti  Ti271  1  0.78622867  0.17708722  0.29267051  1.0
  Ti  Ti272  1  0.78622867  0.34375389  0.29267051  1.0
  Ti  Ti273  1  0.78622867  0.51042056  0.29267051  1.0
  Ti  Ti274  1  0.78622867  0.67708722  0.29267051  1.0
  Ti  Ti275  1  0.78622867  0.84375389  0.29267051  1.0
  Ti  Ti276  1  0.86956201  0.01042056  0.29267051  1.0
  Ti  Ti277  1  0.86956201  0.17708722  0.29267051  1.0
  Ti  Ti278  1  0.86956201  0.34375389  0.29267051  1.0
  Ti  Ti279  1  0.86956201  0.51042056  0.29267051  1.0
  Ti  Ti280  1  0.86956201  0.67708722  0.29267051  1.0
  Ti  Ti281  1  0.86956201  0.84375389  0.29267051  1.0
  Ti  Ti282  1  0.95289534  0.01042056  0.29267051  1.0
  Ti  Ti283  1  0.95289534  0.17708722  0.29267051  1.0
  Ti  Ti284  1  0.95289534  0.34375389  0.29267051  1.0
  Ti  Ti285  1  0.95289534  0.51042056  0.29267051  1.0
  Ti  Ti286  1  0.95289534  0.67708722  0.29267051  1.0
  Ti  Ti287  1  0.95289534  0.84375389  0.29267051  1.0
  Ti  Ti288  1  0.05923041  0.06879858  0.23164015  1.0
  Ti  Ti289  1  0.05923041  0.23546525  0.23164015  1.0
  Ti  Ti290  1  0.05923041  0.40213192  0.23164015  1.0
  Ti  Ti291  1  0.05923041  0.56879858  0.23164015  1.0
  Ti  Ti292  1  0.05923041  0.73546525  0.23164015  1.0
  Ti  Ti293  1  0.05923041  0.90213192  0.23164015  1.0
  Ti  Ti294  1  0.14256374  0.06879858  0.23164015  1.0
  Ti  Ti295  1  0.14256374  0.23546525  0.23164015  1.0
  Ti  Ti296  1  0.14256374  0.40213192  0.23164015  1.0
  Ti  Ti297  1  0.14256374  0.56879858  0.23164015  1.0
  Ti  Ti298  1  0.14256374  0.73546525  0.23164015  1.0
  Ti  Ti299  1  0.14256374  0.90213192  0.23164015  1.0
  Ti  Ti300  1  0.22589707  0.06879858  0.23164015  1.0
  Ti  Ti301  1  0.22589707  0.23546525  0.23164015  1.0
  Ti  Ti302  1  0.22589707  0.40213192  0.23164015  1.0
  Ti  Ti303  1  0.22589707  0.56879858  0.23164015  1.0
  Ti  Ti304  1  0.22589707  0.73546525  0.23164015  1.0
  Ti  Ti305  1  0.22589707  0.90213192  0.23164015  1.0
  Ti  Ti306  1  0.30923041  0.06879858  0.23164015  1.0
  Ti  Ti307  1  0.30923041  0.23546525  0.23164015  1.0
  Ti  Ti308  1  0.30923041  0.40213192  0.23164015  1.0
  Ti  Ti309  1  0.30923041  0.56879858  0.23164015  1.0
  Ti  Ti310  1  0.30923041  0.73546525  0.23164015  1.0
  Ti  Ti311  1  0.30923041  0.90213192  0.23164015  1.0
  Ti  Ti312  1  0.39256374  0.06879858  0.23164015  1.0
  Ti  Ti313  1  0.39256374  0.23546525  0.23164015  1.0
  Ti  Ti314  1  0.39256374  0.40213192  0.23164015  1.0
  Ti  Ti315  1  0.39256374  0.56879858  0.23164015  1.0
  Ti  Ti316  1  0.39256374  0.73546525  0.23164015  1.0
  Ti  Ti317  1  0.39256374  0.90213192  0.23164015  1.0
  Ti  Ti318  1  0.47589707  0.06879858  0.23164015  1.0
  Ti  Ti319  1  0.47589707  0.23546525  0.23164015  1.0
  Ti  Ti320  1  0.47589707  0.40213192  0.23164015  1.0
  Ti  Ti321  1  0.47589707  0.56879858  0.23164015  1.0
  Ti  Ti322  1  0.47589707  0.73546525  0.23164015  1.0
  Ti  Ti323  1  0.47589707  0.90213192  0.23164015  1.0
  Ti  Ti324  1  0.55923041  0.06879858  0.23164015  1.0
  Ti  Ti325  1  0.55923041  0.23546525  0.23164015  1.0
  Ti  Ti326  1  0.55923041  0.40213192  0.23164015  1.0
  Ti  Ti327  1  0.55923041  0.56879858  0.23164015  1.0
  Ti  Ti328  1  0.55923041  0.73546525  0.23164015  1.0
  Ti  Ti329  1  0.55923041  0.90213192  0.23164015  1.0
  Ti  Ti330  1  0.64256374  0.06879858  0.23164015  1.0
  Ti  Ti331  1  0.64256374  0.23546525  0.23164015  1.0
  Ti  Ti332  1  0.64256374  0.40213192  0.23164015  1.0
  Ti  Ti333  1  0.64256374  0.56879858  0.23164015  1.0
  Ti  Ti334  1  0.64256374  0.73546525  0.23164015  1.0
  Ti  Ti335  1  0.64256374  0.90213192  0.23164015  1.0
  Ti  Ti336  1  0.72589707  0.06879858  0.23164015  1.0
  Ti  Ti337  1  0.72589707  0.23546525  0.23164015  1.0
  Ti  Ti338  1  0.72589707  0.40213192  0.23164015  1.0
  Ti  Ti339  1  0.72589707  0.56879858  0.23164015  1.0
  Ti  Ti340  1  0.72589707  0.73546525  0.23164015  1.0
  Ti  Ti341  1  0.72589707  0.90213192  0.23164015  1.0
  Ti  Ti342  1  0.80923041  0.06879858  0.23164015  1.0
  Ti  Ti343  1  0.80923041  0.23546525  0.23164015  1.0
  Ti  Ti344  1  0.80923041  0.40213192  0.23164015  1.0
  Ti  Ti345  1  0.80923041  0.56879858  0.23164015  1.0
  Ti  Ti346  1  0.80923041  0.73546525  0.23164015  1.0
  Ti  Ti347  1  0.80923041  0.90213192  0.23164015  1.0
  Ti  Ti348  1  0.89256374  0.06879858  0.23164015  1.0
  Ti  Ti349  1  0.89256374  0.23546525  0.23164015  1.0
  Ti  Ti350  1  0.89256374  0.40213192  0.23164015  1.0
  Ti  Ti351  1  0.89256374  0.56879858  0.23164015  1.0
  Ti  Ti352  1  0.89256374  0.73546525  0.23164015  1.0
  Ti  Ti353  1  0.89256374  0.90213192  0.23164015  1.0
  Ti  Ti354  1  0.97589707  0.06879858  0.23164015  1.0
  Ti  Ti355  1  0.97589707  0.23546525  0.23164015  1.0
  Ti  Ti356  1  0.97589707  0.40213192  0.23164015  1.0
  Ti  Ti357  1  0.97589707  0.56879858  0.23164015  1.0
  Ti  Ti358  1  0.97589707  0.73546525  0.23164015  1.0
  Ti  Ti359  1  0.97589707  0.90213192  0.23164015  1.0
  Ti  Ti360  1  0.03542088  0.05689382  0.30306873  1.0
  Ti  Ti361  1  0.03542088  0.22356049  0.30306873  1.0
  Ti  Ti362  1  0.03542088  0.39022716  0.30306873  1.0
  Ti  Ti363  1  0.03542088  0.55689382  0.30306873  1.0
  Ti  Ti364  1  0.03542088  0.72356049  0.30306873  1.0
  Ti  Ti365  1  0.03542088  0.89022716  0.30306873  1.0
  Ti  Ti366  1  0.11875422  0.05689382  0.30306873  1.0
  Ti  Ti367  1  0.11875422  0.22356049  0.30306873  1.0
  Ti  Ti368  1  0.11875422  0.39022716  0.30306873  1.0
  Ti  Ti369  1  0.11875422  0.55689382  0.30306873  1.0
  Ti  Ti370  1  0.11875422  0.72356049  0.30306873  1.0
  Ti  Ti371  1  0.11875422  0.89022716  0.30306873  1.0
  Ti  Ti372  1  0.20208755  0.05689382  0.30306873  1.0
  Ti  Ti373  1  0.20208755  0.22356049  0.30306873  1.0
  Ti  Ti374  1  0.20208755  0.39022716  0.30306873  1.0
  Ti  Ti375  1  0.20208755  0.55689382  0.30306873  1.0
  Ti  Ti376  1  0.20208755  0.72356049  0.30306873  1.0
  Ti  Ti377  1  0.20208755  0.89022716  0.30306873  1.0
  Ti  Ti378  1  0.28542088  0.05689382  0.30306873  1.0
  Ti  Ti379  1  0.28542088  0.22356049  0.30306873  1.0
  Ti  Ti380  1  0.28542088  0.39022716  0.30306873  1.0
  Ti  Ti381  1  0.28542088  0.55689382  0.30306873  1.0
  Ti  Ti382  1  0.28542088  0.72356049  0.30306873  1.0
  Ti  Ti383  1  0.28542088  0.89022716  0.30306873  1.0
  Ti  Ti384  1  0.36875422  0.05689382  0.30306873  1.0
  Ti  Ti385  1  0.36875422  0.22356049  0.30306873  1.0
  Ti  Ti386  1  0.36875422  0.39022716  0.30306873  1.0
  Ti  Ti387  1  0.36875422  0.55689382  0.30306873  1.0
  Ti  Ti388  1  0.36875422  0.72356049  0.30306873  1.0
  Ti  Ti389  1  0.36875422  0.89022716  0.30306873  1.0
  Ti  Ti390  1  0.45208755  0.05689382  0.30306873  1.0
  Ti  Ti391  1  0.45208755  0.22356049  0.30306873  1.0
  Ti  Ti392  1  0.45208755  0.39022716  0.30306873  1.0
  Ti  Ti393  1  0.45208755  0.55689382  0.30306873  1.0
  Ti  Ti394  1  0.45208755  0.72356049  0.30306873  1.0
  Ti  Ti395  1  0.45208755  0.89022716  0.30306873  1.0
  Ti  Ti396  1  0.53542088  0.05689382  0.30306873  1.0
  Ti  Ti397  1  0.53542088  0.22356049  0.30306873  1.0
  Ti  Ti398  1  0.53542088  0.39022716  0.30306873  1.0
  Ti  Ti399  1  0.53542088  0.55689382  0.30306873  1.0
  Ti  Ti400  1  0.53542088  0.72356049  0.30306873  1.0
  Ti  Ti401  1  0.53542088  0.89022716  0.30306873  1.0
  Ti  Ti402  1  0.61875422  0.05689382  0.30306873  1.0
  Ti  Ti403  1  0.61875422  0.22356049  0.30306873  1.0
  Ti  Ti404  1  0.61875422  0.39022716  0.30306873  1.0
  Ti  Ti405  1  0.61875422  0.55689382  0.30306873  1.0
  Ti  Ti406  1  0.61875422  0.72356049  0.30306873  1.0
  Ti  Ti407  1  0.61875422  0.89022716  0.30306873  1.0
  Ti  Ti408  1  0.70208755  0.05689382  0.30306873  1.0
  Ti  Ti409  1  0.70208755  0.22356049  0.30306873  1.0
  Ti  Ti410  1  0.70208755  0.39022716  0.30306873  1.0
  Ti  Ti411  1  0.70208755  0.55689382  0.30306873  1.0
  Ti  Ti412  1  0.70208755  0.72356049  0.30306873  1.0
  Ti  Ti413  1  0.70208755  0.89022716  0.30306873  1.0
  Ti  Ti414  1  0.78542088  0.05689382  0.30306873  1.0
  Ti  Ti415  1  0.78542088  0.22356049  0.30306873  1.0
  Ti  Ti416  1  0.78542088  0.39022716  0.30306873  1.0
  Ti  Ti417  1  0.78542088  0.55689382  0.30306873  1.0
  Ti  Ti418  1  0.78542088  0.72356049  0.30306873  1.0
  Ti  Ti419  1  0.78542088  0.89022716  0.30306873  1.0
  Ti  Ti420  1  0.86875422  0.05689382  0.30306873  1.0
  Ti  Ti421  1  0.86875422  0.22356049  0.30306873  1.0
  Ti  Ti422  1  0.86875422  0.39022716  0.30306873  1.0
  Ti  Ti423  1  0.86875422  0.55689382  0.30306873  1.0
  Ti  Ti424  1  0.86875422  0.72356049  0.30306873  1.0
  Ti  Ti425  1  0.86875422  0.89022716  0.30306873  1.0
  Ti  Ti426  1  0.95208755  0.05689382  0.30306873  1.0
  Ti  Ti427  1  0.95208755  0.22356049  0.30306873  1.0
  Ti  Ti428  1  0.95208755  0.39022716  0.30306873  1.0
  Ti  Ti429  1  0.95208755  0.55689382  0.30306873  1.0
  Ti  Ti430  1  0.95208755  0.72356049  0.30306873  1.0
  Ti  Ti431  1  0.95208755  0.89022716  0.30306873  1.0
  Ti  Ti432  1  0.02270659  0.00249922  0.21564296  1.0
  Ti  Ti433  1  0.02270659  0.16916588  0.21564296  1.0
  Ti  Ti434  1  0.02270659  0.33583255  0.21564296  1.0
  Ti  Ti435  1  0.02270659  0.50249922  0.21564296  1.0
  Ti  Ti436  1  0.02270659  0.66916588  0.21564296  1.0
  Ti  Ti437  1  0.02270659  0.83583255  0.21564296  1.0
  Ti  Ti438  1  0.10603992  0.00249922  0.21564296  1.0
  Ti  Ti439  1  0.10603992  0.16916588  0.21564296  1.0
  Ti  Ti440  1  0.10603992  0.33583255  0.21564296  1.0
  Ti  Ti441  1  0.10603992  0.50249922  0.21564296  1.0
  Ti  Ti442  1  0.10603992  0.66916588  0.21564296  1.0
  Ti  Ti443  1  0.10603992  0.83583255  0.21564296  1.0
  Ti  Ti444  1  0.18937325  0.00249922  0.21564296  1.0
  Ti  Ti445  1  0.18937325  0.16916588  0.21564296  1.0
  Ti  Ti446  1  0.18937325  0.33583255  0.21564296  1.0
  Ti  Ti447  1  0.18937325  0.50249922  0.21564296  1.0
  Ti  Ti448  1  0.18937325  0.66916588  0.21564296  1.0
  Ti  Ti449  1  0.18937325  0.83583255  0.21564296  1.0
  Ti  Ti450  1  0.27270659  0.00249922  0.21564296  1.0
  Ti  Ti451  1  0.27270659  0.16916588  0.21564296  1.0
  Ti  Ti452  1  0.27270659  0.33583255  0.21564296  1.0
  Ti  Ti453  1  0.27270659  0.50249922  0.21564296  1.0
  Ti  Ti454  1  0.27270659  0.66916588  0.21564296  1.0
  Ti  Ti455  1  0.27270659  0.83583255  0.21564296  1.0
  Ti  Ti456  1  0.35603992  0.00249922  0.21564296  1.0
  Ti  Ti457  1  0.35603992  0.16916588  0.21564296  1.0
  Ti  Ti458  1  0.35603992  0.33583255  0.21564296  1.0
  Ti  Ti459  1  0.35603992  0.50249922  0.21564296  1.0
  Ti  Ti460  1  0.35603992  0.66916588  0.21564296  1.0
  Ti  Ti461  1  0.35603992  0.83583255  0.21564296  1.0
  Ti  Ti462  1  0.43937325  0.00249922  0.21564296  1.0
  Ti  Ti463  1  0.43937325  0.16916588  0.21564296  1.0
  Ti  Ti464  1  0.43937325  0.33583255  0.21564296  1.0
  Ti  Ti465  1  0.43937325  0.50249922  0.21564296  1.0
  Ti  Ti466  1  0.43937325  0.66916588  0.21564296  1.0
  Ti  Ti467  1  0.43937325  0.83583255  0.21564296  1.0
  Ti  Ti468  1  0.52270659  0.00249922  0.21564296  1.0
  Ti  Ti469  1  0.52270659  0.16916588  0.21564296  1.0
  Ti  Ti470  1  0.52270659  0.33583255  0.21564296  1.0
  Ti  Ti471  1  0.52270659  0.50249922  0.21564296  1.0
  Ti  Ti472  1  0.52270659  0.66916588  0.21564296  1.0
  Ti  Ti473  1  0.52270659  0.83583255  0.21564296  1.0
  Ti  Ti474  1  0.60603992  0.00249922  0.21564296  1.0
  Ti  Ti475  1  0.60603992  0.16916588  0.21564296  1.0
  Ti  Ti476  1  0.60603992  0.33583255  0.21564296  1.0
  Ti  Ti477  1  0.60603992  0.50249922  0.21564296  1.0
  Ti  Ti478  1  0.60603992  0.66916588  0.21564296  1.0
  Ti  Ti479  1  0.60603992  0.83583255  0.21564296  1.0
  Ti  Ti480  1  0.68937325  0.00249922  0.21564296  1.0
  Ti  Ti481  1  0.68937325  0.16916588  0.21564296  1.0
  Ti  Ti482  1  0.68937325  0.33583255  0.21564296  1.0
  Ti  Ti483  1  0.68937325  0.50249922  0.21564296  1.0
  Ti  Ti484  1  0.68937325  0.66916588  0.21564296  1.0
  Ti  Ti485  1  0.68937325  0.83583255  0.21564296  1.0
  Ti  Ti486  1  0.77270659  0.00249922  0.21564296  1.0
  Ti  Ti487  1  0.77270659  0.16916588  0.21564296  1.0
  Ti  Ti488  1  0.77270659  0.33583255  0.21564296  1.0
  Ti  Ti489  1  0.77270659  0.50249922  0.21564296  1.0
  Ti  Ti490  1  0.77270659  0.66916588  0.21564296  1.0
  Ti  Ti491  1  0.77270659  0.83583255  0.21564296  1.0
  Ti  Ti492  1  0.85603992  0.00249922  0.21564296  1.0
  Ti  Ti493  1  0.85603992  0.16916588  0.21564296  1.0
  Ti  Ti494  1  0.85603992  0.33583255  0.21564296  1.0
  Ti  Ti495  1  0.85603992  0.50249922  0.21564296  1.0
  Ti  Ti496  1  0.85603992  0.66916588  0.21564296  1.0
  Ti  Ti497  1  0.85603992  0.83583255  0.21564296  1.0
  Ti  Ti498  1  0.93937325  0.00249922  0.21564296  1.0
  Ti  Ti499  1  0.93937325  0.16916588  0.21564296  1.0
  Ti  Ti500  1  0.93937325  0.33583255  0.21564296  1.0
  Ti  Ti501  1  0.93937325  0.50249922  0.21564296  1.0
  Ti  Ti502  1  0.93937325  0.66916588  0.21564296  1.0
  Ti  Ti503  1  0.93937325  0.83583255  0.21564296  1.0
  Ti  Ti504  1  0.08223040  0.15726112  0.28707153  1.0
  Ti  Ti505  1  0.08223040  0.32392779  0.28707153  1.0
  Ti  Ti506  1  0.08223040  0.49059445  0.28707153  1.0
  Ti  Ti507  1  0.08223040  0.65726112  0.28707153  1.0
  Ti  Ti508  1  0.08223040  0.82392779  0.28707153  1.0
  Ti  Ti509  1  0.08223040  0.99059445  0.28707153  1.0
  Ti  Ti510  1  0.16556373  0.15726112  0.28707153  1.0
  Ti  Ti511  1  0.16556373  0.32392779  0.28707153  1.0
  Ti  Ti512  1  0.16556373  0.49059445  0.28707153  1.0
  Ti  Ti513  1  0.16556373  0.65726112  0.28707153  1.0
  Ti  Ti514  1  0.16556373  0.82392779  0.28707153  1.0
  Ti  Ti515  1  0.16556373  0.99059445  0.28707153  1.0
  Ti  Ti516  1  0.24889706  0.15726112  0.28707153  1.0
  Ti  Ti517  1  0.24889706  0.32392779  0.28707153  1.0
  Ti  Ti518  1  0.24889706  0.49059445  0.28707153  1.0
  Ti  Ti519  1  0.24889706  0.65726112  0.28707153  1.0
  Ti  Ti520  1  0.24889706  0.82392779  0.28707153  1.0
  Ti  Ti521  1  0.24889706  0.99059445  0.28707153  1.0
  Ti  Ti522  1  0.33223040  0.15726112  0.28707153  1.0
  Ti  Ti523  1  0.33223040  0.32392779  0.28707153  1.0
  Ti  Ti524  1  0.33223040  0.49059445  0.28707153  1.0
  Ti  Ti525  1  0.33223040  0.65726112  0.28707153  1.0
  Ti  Ti526  1  0.33223040  0.82392779  0.28707153  1.0
  Ti  Ti527  1  0.33223040  0.99059445  0.28707153  1.0
  Ti  Ti528  1  0.41556373  0.15726112  0.28707153  1.0
  Ti  Ti529  1  0.41556373  0.32392779  0.28707153  1.0
  Ti  Ti530  1  0.41556373  0.49059445  0.28707153  1.0
  Ti  Ti531  1  0.41556373  0.65726112  0.28707153  1.0
  Ti  Ti532  1  0.41556373  0.82392779  0.28707153  1.0
  Ti  Ti533  1  0.41556373  0.99059445  0.28707153  1.0
  Ti  Ti534  1  0.49889706  0.15726112  0.28707153  1.0
  Ti  Ti535  1  0.49889706  0.32392779  0.28707153  1.0
  Ti  Ti536  1  0.49889706  0.49059445  0.28707153  1.0
  Ti  Ti537  1  0.49889706  0.65726112  0.28707153  1.0
  Ti  Ti538  1  0.49889706  0.82392779  0.28707153  1.0
  Ti  Ti539  1  0.49889706  0.99059445  0.28707153  1.0
  Ti  Ti540  1  0.58223040  0.15726112  0.28707153  1.0
  Ti  Ti541  1  0.58223040  0.32392779  0.28707153  1.0
  Ti  Ti542  1  0.58223040  0.49059445  0.28707153  1.0
  Ti  Ti543  1  0.58223040  0.65726112  0.28707153  1.0
  Ti  Ti544  1  0.58223040  0.82392779  0.28707153  1.0
  Ti  Ti545  1  0.58223040  0.99059445  0.28707153  1.0
  Ti  Ti546  1  0.66556373  0.15726112  0.28707153  1.0
  Ti  Ti547  1  0.66556373  0.32392779  0.28707153  1.0
  Ti  Ti548  1  0.66556373  0.49059445  0.28707153  1.0
  Ti  Ti549  1  0.66556373  0.65726112  0.28707153  1.0
  Ti  Ti550  1  0.66556373  0.82392779  0.28707153  1.0
  Ti  Ti551  1  0.66556373  0.99059445  0.28707153  1.0
  Ti  Ti552  1  0.74889706  0.15726112  0.28707153  1.0
  Ti  Ti553  1  0.74889706  0.32392779  0.28707153  1.0
  Ti  Ti554  1  0.74889706  0.49059445  0.28707153  1.0
  Ti  Ti555  1  0.74889706  0.65726112  0.28707153  1.0
  Ti  Ti556  1  0.74889706  0.82392779  0.28707153  1.0
  Ti  Ti557  1  0.74889706  0.99059445  0.28707153  1.0
  Ti  Ti558  1  0.83223040  0.15726112  0.28707153  1.0
  Ti  Ti559  1  0.83223040  0.32392779  0.28707153  1.0
  Ti  Ti560  1  0.83223040  0.49059445  0.28707153  1.0
  Ti  Ti561  1  0.83223040  0.65726112  0.28707153  1.0
  Ti  Ti562  1  0.83223040  0.82392779  0.28707153  1.0
  Ti  Ti563  1  0.83223040  0.99059445  0.28707153  1.0
  Ti  Ti564  1  0.91556373  0.15726112  0.28707153  1.0
  Ti  Ti565  1  0.91556373  0.32392779  0.28707153  1.0
  Ti  Ti566  1  0.91556373  0.49059445  0.28707153  1.0
  Ti  Ti567  1  0.91556373  0.65726112  0.28707153  1.0
  Ti  Ti568  1  0.91556373  0.82392779  0.28707153  1.0
  Ti  Ti569  1  0.91556373  0.99059445  0.28707153  1.0
  Ti  Ti570  1  0.99889706  0.15726112  0.28707153  1.0
  Ti  Ti571  1  0.99889706  0.32392779  0.28707153  1.0
  Ti  Ti572  1  0.99889706  0.49059445  0.28707153  1.0
  Ti  Ti573  1  0.99889706  0.65726112  0.28707153  1.0
  Ti  Ti574  1  0.99889706  0.82392779  0.28707153  1.0
  Ti  Ti575  1  0.99889706  0.99059445  0.28707153  1.0
  Ti  Ti576  1  0.01112112  0.13864118  0.24851481  1.0
  Ti  Ti577  1  0.01112112  0.30530784  0.24851481  1.0
  Ti  Ti578  1  0.01112112  0.47197451  0.24851481  1.0
  Ti  Ti579  1  0.01112112  0.63864118  0.24851481  1.0
  Ti  Ti580  1  0.01112112  0.80530784  0.24851481  1.0
  Ti  Ti581  1  0.01112112  0.97197451  0.24851481  1.0
  Ti  Ti582  1  0.09445445  0.13864118  0.24851481  1.0
  Ti  Ti583  1  0.09445445  0.30530784  0.24851481  1.0
  Ti  Ti584  1  0.09445445  0.47197451  0.24851481  1.0
  Ti  Ti585  1  0.09445445  0.63864118  0.24851481  1.0
  Ti  Ti586  1  0.09445445  0.80530784  0.24851481  1.0
  Ti  Ti587  1  0.09445445  0.97197451  0.24851481  1.0
  Ti  Ti588  1  0.17778779  0.13864118  0.24851481  1.0
  Ti  Ti589  1  0.17778779  0.30530784  0.24851481  1.0
  Ti  Ti590  1  0.17778779  0.47197451  0.24851481  1.0
  Ti  Ti591  1  0.17778779  0.63864118  0.24851481  1.0
  Ti  Ti592  1  0.17778779  0.80530784  0.24851481  1.0
  Ti  Ti593  1  0.17778779  0.97197451  0.24851481  1.0
  Ti  Ti594  1  0.26112112  0.13864118  0.24851481  1.0
  Ti  Ti595  1  0.26112112  0.30530784  0.24851481  1.0
  Ti  Ti596  1  0.26112112  0.47197451  0.24851481  1.0
  Ti  Ti597  1  0.26112112  0.63864118  0.24851481  1.0
  Ti  Ti598  1  0.26112112  0.80530784  0.24851481  1.0
  Ti  Ti599  1  0.26112112  0.97197451  0.24851481  1.0
  Ti  Ti600  1  0.34445445  0.13864118  0.24851481  1.0
  Ti  Ti601  1  0.34445445  0.30530784  0.24851481  1.0
  Ti  Ti602  1  0.34445445  0.47197451  0.24851481  1.0
  Ti  Ti603  1  0.34445445  0.63864118  0.24851481  1.0
  Ti  Ti604  1  0.34445445  0.80530784  0.24851481  1.0
  Ti  Ti605  1  0.34445445  0.97197451  0.24851481  1.0
  Ti  Ti606  1  0.42778779  0.13864118  0.24851481  1.0
  Ti  Ti607  1  0.42778779  0.30530784  0.24851481  1.0
  Ti  Ti608  1  0.42778779  0.47197451  0.24851481  1.0
  Ti  Ti609  1  0.42778779  0.63864118  0.24851481  1.0
  Ti  Ti610  1  0.42778779  0.80530784  0.24851481  1.0
  Ti  Ti611  1  0.42778779  0.97197451  0.24851481  1.0
  Ti  Ti612  1  0.51112112  0.13864118  0.24851481  1.0
  Ti  Ti613  1  0.51112112  0.30530784  0.24851481  1.0
  Ti  Ti614  1  0.51112112  0.47197451  0.24851481  1.0
  Ti  Ti615  1  0.51112112  0.63864118  0.24851481  1.0
  Ti  Ti616  1  0.51112112  0.80530784  0.24851481  1.0
  Ti  Ti617  1  0.51112112  0.97197451  0.24851481  1.0
  Ti  Ti618  1  0.59445445  0.13864118  0.24851481  1.0
  Ti  Ti619  1  0.59445445  0.30530784  0.24851481  1.0
  Ti  Ti620  1  0.59445445  0.47197451  0.24851481  1.0
  Ti  Ti621  1  0.59445445  0.63864118  0.24851481  1.0
  Ti  Ti622  1  0.59445445  0.80530784  0.24851481  1.0
  Ti  Ti623  1  0.59445445  0.97197451  0.24851481  1.0
  Ti  Ti624  1  0.67778779  0.13864118  0.24851481  1.0
  Ti  Ti625  1  0.67778779  0.30530784  0.24851481  1.0
  Ti  Ti626  1  0.67778779  0.47197451  0.24851481  1.0
  Ti  Ti627  1  0.67778779  0.63864118  0.24851481  1.0
  Ti  Ti628  1  0.67778779  0.80530784  0.24851481  1.0
  Ti  Ti629  1  0.67778779  0.97197451  0.24851481  1.0
  Ti  Ti630  1  0.76112112  0.13864118  0.24851481  1.0
  Ti  Ti631  1  0.76112112  0.30530784  0.24851481  1.0
  Ti  Ti632  1  0.76112112  0.47197451  0.24851481  1.0
  Ti  Ti633  1  0.76112112  0.63864118  0.24851481  1.0
  Ti  Ti634  1  0.76112112  0.80530784  0.24851481  1.0
  Ti  Ti635  1  0.76112112  0.97197451  0.24851481  1.0
  Ti  Ti636  1  0.84445445  0.13864118  0.24851481  1.0
  Ti  Ti637  1  0.84445445  0.30530784  0.24851481  1.0
  Ti  Ti638  1  0.84445445  0.47197451  0.24851481  1.0
  Ti  Ti639  1  0.84445445  0.63864118  0.24851481  1.0
  Ti  Ti640  1  0.84445445  0.80530784  0.24851481  1.0
  Ti  Ti641  1  0.84445445  0.97197451  0.24851481  1.0
  Ti  Ti642  1  0.92778779  0.13864118  0.24851481  1.0
  Ti  Ti643  1  0.92778779  0.30530784  0.24851481  1.0
  Ti  Ti644  1  0.92778779  0.47197451  0.24851481  1.0
  Ti  Ti645  1  0.92778779  0.63864118  0.24851481  1.0
  Ti  Ti646  1  0.92778779  0.80530784  0.24851481  1.0
  Ti  Ti647  1  0.92778779  0.97197451  0.24851481  1.0
  Ti  Ti648  1  0.07064493  0.12673641  0.31994338  1.0
  Ti  Ti649  1  0.07064493  0.29340308  0.31994338  1.0
  Ti  Ti650  1  0.07064493  0.46006975  0.31994338  1.0
  Ti  Ti651  1  0.07064493  0.62673641  0.31994338  1.0
  Ti  Ti652  1  0.07064493  0.79340308  0.31994338  1.0
  Ti  Ti653  1  0.07064493  0.96006975  0.31994338  1.0
  Ti  Ti654  1  0.15397826  0.12673641  0.31994338  1.0
  Ti  Ti655  1  0.15397826  0.29340308  0.31994338  1.0
  Ti  Ti656  1  0.15397826  0.46006975  0.31994338  1.0
  Ti  Ti657  1  0.15397826  0.62673641  0.31994338  1.0
  Ti  Ti658  1  0.15397826  0.79340308  0.31994338  1.0
  Ti  Ti659  1  0.15397826  0.96006975  0.31994338  1.0
  Ti  Ti660  1  0.23731160  0.12673641  0.31994338  1.0
  Ti  Ti661  1  0.23731160  0.29340308  0.31994338  1.0
  Ti  Ti662  1  0.23731160  0.46006975  0.31994338  1.0
  Ti  Ti663  1  0.23731160  0.62673641  0.31994338  1.0
  Ti  Ti664  1  0.23731160  0.79340308  0.31994338  1.0
  Ti  Ti665  1  0.23731160  0.96006975  0.31994338  1.0
  Ti  Ti666  1  0.32064493  0.12673641  0.31994338  1.0
  Ti  Ti667  1  0.32064493  0.29340308  0.31994338  1.0
  Ti  Ti668  1  0.32064493  0.46006975  0.31994338  1.0
  Ti  Ti669  1  0.32064493  0.62673641  0.31994338  1.0
  Ti  Ti670  1  0.32064493  0.79340308  0.31994338  1.0
  Ti  Ti671  1  0.32064493  0.96006975  0.31994338  1.0
  Ti  Ti672  1  0.40397826  0.12673641  0.31994338  1.0
  Ti  Ti673  1  0.40397826  0.29340308  0.31994338  1.0
  Ti  Ti674  1  0.40397826  0.46006975  0.31994338  1.0
  Ti  Ti675  1  0.40397826  0.62673641  0.31994338  1.0
  Ti  Ti676  1  0.40397826  0.79340308  0.31994338  1.0
  Ti  Ti677  1  0.40397826  0.96006975  0.31994338  1.0
  Ti  Ti678  1  0.48731160  0.12673641  0.31994338  1.0
  Ti  Ti679  1  0.48731160  0.29340308  0.31994338  1.0
  Ti  Ti680  1  0.48731160  0.46006975  0.31994338  1.0
  Ti  Ti681  1  0.48731160  0.62673641  0.31994338  1.0
  Ti  Ti682  1  0.48731160  0.79340308  0.31994338  1.0
  Ti  Ti683  1  0.48731160  0.96006975  0.31994338  1.0
  Ti  Ti684  1  0.57064493  0.12673641  0.31994338  1.0
  Ti  Ti685  1  0.57064493  0.29340308  0.31994338  1.0
  Ti  Ti686  1  0.57064493  0.46006975  0.31994338  1.0
  Ti  Ti687  1  0.57064493  0.62673641  0.31994338  1.0
  Ti  Ti688  1  0.57064493  0.79340308  0.31994338  1.0
  Ti  Ti689  1  0.57064493  0.96006975  0.31994338  1.0
  Ti  Ti690  1  0.65397826  0.12673641  0.31994338  1.0
  Ti  Ti691  1  0.65397826  0.29340308  0.31994338  1.0
  Ti  Ti692  1  0.65397826  0.46006975  0.31994338  1.0
  Ti  Ti693  1  0.65397826  0.62673641  0.31994338  1.0
  Ti  Ti694  1  0.65397826  0.79340308  0.31994338  1.0
  Ti  Ti695  1  0.65397826  0.96006975  0.31994338  1.0
  Ti  Ti696  1  0.73731160  0.12673641  0.31994338  1.0
  Ti  Ti697  1  0.73731160  0.29340308  0.31994338  1.0
  Ti  Ti698  1  0.73731160  0.46006975  0.31994338  1.0
  Ti  Ti699  1  0.73731160  0.62673641  0.31994338  1.0
  Ti  Ti700  1  0.73731160  0.79340308  0.31994338  1.0
  Ti  Ti701  1  0.73731160  0.96006975  0.31994338  1.0
  Ti  Ti702  1  0.82064493  0.12673641  0.31994338  1.0
  Ti  Ti703  1  0.82064493  0.29340308  0.31994338  1.0
  Ti  Ti704  1  0.82064493  0.46006975  0.31994338  1.0
  Ti  Ti705  1  0.82064493  0.62673641  0.31994338  1.0
  Ti  Ti706  1  0.82064493  0.79340308  0.31994338  1.0
  Ti  Ti707  1  0.82064493  0.96006975  0.31994338  1.0
  Ti  Ti708  1  0.90397826  0.12673641  0.31994338  1.0
  Ti  Ti709  1  0.90397826  0.29340308  0.31994338  1.0
  Ti  Ti710  1  0.90397826  0.46006975  0.31994338  1.0
  Ti  Ti711  1  0.90397826  0.62673641  0.31994338  1.0
  Ti  Ti712  1  0.90397826  0.79340308  0.31994338  1.0
  Ti  Ti713  1  0.90397826  0.96006975  0.31994338  1.0
  Ti  Ti714  1  0.98731160  0.12673641  0.31994338  1.0
  Ti  Ti715  1  0.98731160  0.29340308  0.31994338  1.0
  Ti  Ti716  1  0.98731160  0.46006975  0.31994338  1.0
  Ti  Ti717  1  0.98731160  0.62673641  0.31994338  1.0
  Ti  Ti718  1  0.98731160  0.79340308  0.31994338  1.0
  Ti  Ti719  1  0.98731160  0.96006975  0.31994338  1.0
  Ti  Ti720  1  0.01321266  0.08862339  0.23725839  1.0
  Ti  Ti721  1  0.01321266  0.25529006  0.23725839  1.0
  Ti  Ti722  1  0.01321266  0.42195673  0.23725839  1.0
  Ti  Ti723  1  0.01321266  0.58862339  0.23725839  1.0
  Ti  Ti724  1  0.01321266  0.75529006  0.23725839  1.0
  Ti  Ti725  1  0.01321266  0.92195673  0.23725839  1.0
  Ti  Ti726  1  0.09654599  0.08862339  0.23725839  1.0
  Ti  Ti727  1  0.09654599  0.25529006  0.23725839  1.0
  Ti  Ti728  1  0.09654599  0.42195673  0.23725839  1.0
  Ti  Ti729  1  0.09654599  0.58862339  0.23725839  1.0
  Ti  Ti730  1  0.09654599  0.75529006  0.23725839  1.0
  Ti  Ti731  1  0.09654599  0.92195673  0.23725839  1.0
  Ti  Ti732  1  0.17987932  0.08862339  0.23725839  1.0
  Ti  Ti733  1  0.17987932  0.25529006  0.23725839  1.0
  Ti  Ti734  1  0.17987932  0.42195673  0.23725839  1.0
  Ti  Ti735  1  0.17987932  0.58862339  0.23725839  1.0
  Ti  Ti736  1  0.17987932  0.75529006  0.23725839  1.0
  Ti  Ti737  1  0.17987932  0.92195673  0.23725839  1.0
  Ti  Ti738  1  0.26321266  0.08862339  0.23725839  1.0
  Ti  Ti739  1  0.26321266  0.25529006  0.23725839  1.0
  Ti  Ti740  1  0.26321266  0.42195673  0.23725839  1.0
  Ti  Ti741  1  0.26321266  0.58862339  0.23725839  1.0
  Ti  Ti742  1  0.26321266  0.75529006  0.23725839  1.0
  Ti  Ti743  1  0.26321266  0.92195673  0.23725839  1.0
  Ti  Ti744  1  0.34654599  0.08862339  0.23725839  1.0
  Ti  Ti745  1  0.34654599  0.25529006  0.23725839  1.0
  Ti  Ti746  1  0.34654599  0.42195673  0.23725839  1.0
  Ti  Ti747  1  0.34654599  0.58862339  0.23725839  1.0
  Ti  Ti748  1  0.34654599  0.75529006  0.23725839  1.0
  Ti  Ti749  1  0.34654599  0.92195673  0.23725839  1.0
  Ti  Ti750  1  0.42987932  0.08862339  0.23725839  1.0
  Ti  Ti751  1  0.42987932  0.25529006  0.23725839  1.0
  Ti  Ti752  1  0.42987932  0.42195673  0.23725839  1.0
  Ti  Ti753  1  0.42987932  0.58862339  0.23725839  1.0
  Ti  Ti754  1  0.42987932  0.75529006  0.23725839  1.0
  Ti  Ti755  1  0.42987932  0.92195673  0.23725839  1.0
  Ti  Ti756  1  0.51321266  0.08862339  0.23725839  1.0
  Ti  Ti757  1  0.51321266  0.25529006  0.23725839  1.0
  Ti  Ti758  1  0.51321266  0.42195673  0.23725839  1.0
  Ti  Ti759  1  0.51321266  0.58862339  0.23725839  1.0
  Ti  Ti760  1  0.51321266  0.75529006  0.23725839  1.0
  Ti  Ti761  1  0.51321266  0.92195673  0.23725839  1.0
  Ti  Ti762  1  0.59654599  0.08862339  0.23725839  1.0
  Ti  Ti763  1  0.59654599  0.25529006  0.23725839  1.0
  Ti  Ti764  1  0.59654599  0.42195673  0.23725839  1.0
  Ti  Ti765  1  0.59654599  0.58862339  0.23725839  1.0
  Ti  Ti766  1  0.59654599  0.75529006  0.23725839  1.0
  Ti  Ti767  1  0.59654599  0.92195673  0.23725839  1.0
  Ti  Ti768  1  0.67987932  0.08862339  0.23725839  1.0
  Ti  Ti769  1  0.67987932  0.25529006  0.23725839  1.0
  Ti  Ti770  1  0.67987932  0.42195673  0.23725839  1.0
  Ti  Ti771  1  0.67987932  0.58862339  0.23725839  1.0
  Ti  Ti772  1  0.67987932  0.75529006  0.23725839  1.0
  Ti  Ti773  1  0.67987932  0.92195673  0.23725839  1.0
  Ti  Ti774  1  0.76321266  0.08862339  0.23725839  1.0
  Ti  Ti775  1  0.76321266  0.25529006  0.23725839  1.0
  Ti  Ti776  1  0.76321266  0.42195673  0.23725839  1.0
  Ti  Ti777  1  0.76321266  0.58862339  0.23725839  1.0
  Ti  Ti778  1  0.76321266  0.75529006  0.23725839  1.0
  Ti  Ti779  1  0.76321266  0.92195673  0.23725839  1.0
  Ti  Ti780  1  0.84654599  0.08862339  0.23725839  1.0
  Ti  Ti781  1  0.84654599  0.25529006  0.23725839  1.0
  Ti  Ti782  1  0.84654599  0.42195673  0.23725839  1.0
  Ti  Ti783  1  0.84654599  0.58862339  0.23725839  1.0
  Ti  Ti784  1  0.84654599  0.75529006  0.23725839  1.0
  Ti  Ti785  1  0.84654599  0.92195673  0.23725839  1.0
  Ti  Ti786  1  0.92987932  0.08862339  0.23725839  1.0
  Ti  Ti787  1  0.92987932  0.25529006  0.23725839  1.0
  Ti  Ti788  1  0.92987932  0.42195673  0.23725839  1.0
  Ti  Ti789  1  0.92987932  0.58862339  0.23725839  1.0
  Ti  Ti790  1  0.92987932  0.75529006  0.23725839  1.0
  Ti  Ti791  1  0.92987932  0.92195673  0.23725839  1.0
  Ti  Ti792  1  0.07273647  0.07671863  0.30868696  1.0
  Ti  Ti793  1  0.07273647  0.24338530  0.30868696  1.0
  Ti  Ti794  1  0.07273647  0.41005196  0.30868696  1.0
  Ti  Ti795  1  0.07273647  0.57671863  0.30868696  1.0
  Ti  Ti796  1  0.07273647  0.74338530  0.30868696  1.0
  Ti  Ti797  1  0.07273647  0.91005196  0.30868696  1.0
  Ti  Ti798  1  0.15606980  0.07671863  0.30868696  1.0
  Ti  Ti799  1  0.15606980  0.24338530  0.30868696  1.0
  Ti  Ti800  1  0.15606980  0.41005196  0.30868696  1.0
  Ti  Ti801  1  0.15606980  0.57671863  0.30868696  1.0
  Ti  Ti802  1  0.15606980  0.74338530  0.30868696  1.0
  Ti  Ti803  1  0.15606980  0.91005196  0.30868696  1.0
  Ti  Ti804  1  0.23940313  0.07671863  0.30868696  1.0
  Ti  Ti805  1  0.23940313  0.24338530  0.30868696  1.0
  Ti  Ti806  1  0.23940313  0.41005196  0.30868696  1.0
  Ti  Ti807  1  0.23940313  0.57671863  0.30868696  1.0
  Ti  Ti808  1  0.23940313  0.74338530  0.30868696  1.0
  Ti  Ti809  1  0.23940313  0.91005196  0.30868696  1.0
  Ti  Ti810  1  0.32273647  0.07671863  0.30868696  1.0
  Ti  Ti811  1  0.32273647  0.24338530  0.30868696  1.0
  Ti  Ti812  1  0.32273647  0.41005196  0.30868696  1.0
  Ti  Ti813  1  0.32273647  0.57671863  0.30868696  1.0
  Ti  Ti814  1  0.32273647  0.74338530  0.30868696  1.0
  Ti  Ti815  1  0.32273647  0.91005196  0.30868696  1.0
  Ti  Ti816  1  0.40606980  0.07671863  0.30868696  1.0
  Ti  Ti817  1  0.40606980  0.24338530  0.30868696  1.0
  Ti  Ti818  1  0.40606980  0.41005196  0.30868696  1.0
  Ti  Ti819  1  0.40606980  0.57671863  0.30868696  1.0
  Ti  Ti820  1  0.40606980  0.74338530  0.30868696  1.0
  Ti  Ti821  1  0.40606980  0.91005196  0.30868696  1.0
  Ti  Ti822  1  0.48940313  0.07671863  0.30868696  1.0
  Ti  Ti823  1  0.48940313  0.24338530  0.30868696  1.0
  Ti  Ti824  1  0.48940313  0.41005196  0.30868696  1.0
  Ti  Ti825  1  0.48940313  0.57671863  0.30868696  1.0
  Ti  Ti826  1  0.48940313  0.74338530  0.30868696  1.0
  Ti  Ti827  1  0.48940313  0.91005196  0.30868696  1.0
  Ti  Ti828  1  0.57273647  0.07671863  0.30868696  1.0
  Ti  Ti829  1  0.57273647  0.24338530  0.30868696  1.0
  Ti  Ti830  1  0.57273647  0.41005196  0.30868696  1.0
  Ti  Ti831  1  0.57273647  0.57671863  0.30868696  1.0
  Ti  Ti832  1  0.57273647  0.74338530  0.30868696  1.0
  Ti  Ti833  1  0.57273647  0.91005196  0.30868696  1.0
  Ti  Ti834  1  0.65606980  0.07671863  0.30868696  1.0
  Ti  Ti835  1  0.65606980  0.24338530  0.30868696  1.0
  Ti  Ti836  1  0.65606980  0.41005196  0.30868696  1.0
  Ti  Ti837  1  0.65606980  0.57671863  0.30868696  1.0
  Ti  Ti838  1  0.65606980  0.74338530  0.30868696  1.0
  Ti  Ti839  1  0.65606980  0.91005196  0.30868696  1.0
  Ti  Ti840  1  0.73940313  0.07671863  0.30868696  1.0
  Ti  Ti841  1  0.73940313  0.24338530  0.30868696  1.0
  Ti  Ti842  1  0.73940313  0.41005196  0.30868696  1.0
  Ti  Ti843  1  0.73940313  0.57671863  0.30868696  1.0
  Ti  Ti844  1  0.73940313  0.74338530  0.30868696  1.0
  Ti  Ti845  1  0.73940313  0.91005196  0.30868696  1.0
  Ti  Ti846  1  0.82273647  0.07671863  0.30868696  1.0
  Ti  Ti847  1  0.82273647  0.24338530  0.30868696  1.0
  Ti  Ti848  1  0.82273647  0.41005196  0.30868696  1.0
  Ti  Ti849  1  0.82273647  0.57671863  0.30868696  1.0
  Ti  Ti850  1  0.82273647  0.74338530  0.30868696  1.0
  Ti  Ti851  1  0.82273647  0.91005196  0.30868696  1.0
  Ti  Ti852  1  0.90606980  0.07671863  0.30868696  1.0
  Ti  Ti853  1  0.90606980  0.24338530  0.30868696  1.0
  Ti  Ti854  1  0.90606980  0.41005196  0.30868696  1.0
  Ti  Ti855  1  0.90606980  0.57671863  0.30868696  1.0
  Ti  Ti856  1  0.90606980  0.74338530  0.30868696  1.0
  Ti  Ti857  1  0.90606980  0.91005196  0.30868696  1.0
  Ti  Ti858  1  0.98940313  0.07671863  0.30868696  1.0
  Ti  Ti859  1  0.98940313  0.24338530  0.30868696  1.0
  Ti  Ti860  1  0.98940313  0.41005196  0.30868696  1.0
  Ti  Ti861  1  0.98940313  0.57671863  0.30868696  1.0
  Ti  Ti862  1  0.98940313  0.74338530  0.30868696  1.0
  Ti  Ti863  1  0.98940313  0.91005196  0.30868696  1.0
  Ti  Ti864  1  0.02390496  0.02767927  0.33357514  1.0
  Ti  Ti865  1  0.02390496  0.19434594  0.33357514  1.0
  Ti  Ti866  1  0.02390496  0.36101260  0.33357514  1.0
  Ti  Ti867  1  0.02390496  0.52767927  0.33357514  1.0
  Ti  Ti868  1  0.02390496  0.69434594  0.33357514  1.0
  Ti  Ti869  1  0.02390496  0.86101260  0.33357514  1.0
  Ti  Ti870  1  0.10723830  0.02767927  0.33357514  1.0
  Ti  Ti871  1  0.10723830  0.19434594  0.33357514  1.0
  Ti  Ti872  1  0.10723830  0.36101260  0.33357514  1.0
  Ti  Ti873  1  0.10723830  0.52767927  0.33357514  1.0
  Ti  Ti874  1  0.10723830  0.69434594  0.33357514  1.0
  Ti  Ti875  1  0.10723830  0.86101260  0.33357514  1.0
  Ti  Ti876  1  0.19057163  0.02767927  0.33357514  1.0
  Ti  Ti877  1  0.19057163  0.19434594  0.33357514  1.0
  Ti  Ti878  1  0.19057163  0.36101260  0.33357514  1.0
  Ti  Ti879  1  0.19057163  0.52767927  0.33357514  1.0
  Ti  Ti880  1  0.19057163  0.69434594  0.33357514  1.0
  Ti  Ti881  1  0.19057163  0.86101260  0.33357514  1.0
  Ti  Ti882  1  0.27390496  0.02767927  0.33357514  1.0
  Ti  Ti883  1  0.27390496  0.19434594  0.33357514  1.0
  Ti  Ti884  1  0.27390496  0.36101260  0.33357514  1.0
  Ti  Ti885  1  0.27390496  0.52767927  0.33357514  1.0
  Ti  Ti886  1  0.27390496  0.69434594  0.33357514  1.0
  Ti  Ti887  1  0.27390496  0.86101260  0.33357514  1.0
  Ti  Ti888  1  0.35723830  0.02767927  0.33357514  1.0
  Ti  Ti889  1  0.35723830  0.19434594  0.33357514  1.0
  Ti  Ti890  1  0.35723830  0.36101260  0.33357514  1.0
  Ti  Ti891  1  0.35723830  0.52767927  0.33357514  1.0
  Ti  Ti892  1  0.35723830  0.69434594  0.33357514  1.0
  Ti  Ti893  1  0.35723830  0.86101260  0.33357514  1.0
  Ti  Ti894  1  0.44057163  0.02767927  0.33357514  1.0
  Ti  Ti895  1  0.44057163  0.19434594  0.33357514  1.0
  Ti  Ti896  1  0.44057163  0.36101260  0.33357514  1.0
  Ti  Ti897  1  0.44057163  0.52767927  0.33357514  1.0
  Ti  Ti898  1  0.44057163  0.69434594  0.33357514  1.0
  Ti  Ti899  1  0.44057163  0.86101260  0.33357514  1.0
  Ti  Ti900  1  0.52390496  0.02767927  0.33357514  1.0
  Ti  Ti901  1  0.52390496  0.19434594  0.33357514  1.0
  Ti  Ti902  1  0.52390496  0.36101260  0.33357514  1.0
  Ti  Ti903  1  0.52390496  0.52767927  0.33357514  1.0
  Ti  Ti904  1  0.52390496  0.69434594  0.33357514  1.0
  Ti  Ti905  1  0.52390496  0.86101260  0.33357514  1.0
  Ti  Ti906  1  0.60723830  0.02767927  0.33357514  1.0
  Ti  Ti907  1  0.60723830  0.19434594  0.33357514  1.0
  Ti  Ti908  1  0.60723830  0.36101260  0.33357514  1.0
  Ti  Ti909  1  0.60723830  0.52767927  0.33357514  1.0
  Ti  Ti910  1  0.60723830  0.69434594  0.33357514  1.0
  Ti  Ti911  1  0.60723830  0.86101260  0.33357514  1.0
  Ti  Ti912  1  0.69057163  0.02767927  0.33357514  1.0
  Ti  Ti913  1  0.69057163  0.19434594  0.33357514  1.0
  Ti  Ti914  1  0.69057163  0.36101260  0.33357514  1.0
  Ti  Ti915  1  0.69057163  0.52767927  0.33357514  1.0
  Ti  Ti916  1  0.69057163  0.69434594  0.33357514  1.0
  Ti  Ti917  1  0.69057163  0.86101260  0.33357514  1.0
  Ti  Ti918  1  0.77390496  0.02767927  0.33357514  1.0
  Ti  Ti919  1  0.77390496  0.19434594  0.33357514  1.0
  Ti  Ti920  1  0.77390496  0.36101260  0.33357514  1.0
  Ti  Ti921  1  0.77390496  0.52767927  0.33357514  1.0
  Ti  Ti922  1  0.77390496  0.69434594  0.33357514  1.0
  Ti  Ti923  1  0.77390496  0.86101260  0.33357514  1.0
  Ti  Ti924  1  0.85723830  0.02767927  0.33357514  1.0
  Ti  Ti925  1  0.85723830  0.19434594  0.33357514  1.0
  Ti  Ti926  1  0.85723830  0.36101260  0.33357514  1.0
  Ti  Ti927  1  0.85723830  0.52767927  0.33357514  1.0
  Ti  Ti928  1  0.85723830  0.69434594  0.33357514  1.0
  Ti  Ti929  1  0.85723830  0.86101260  0.33357514  1.0
  Ti  Ti930  1  0.94057163  0.02767927  0.33357514  1.0
  Ti  Ti931  1  0.94057163  0.19434594  0.33357514  1.0
  Ti  Ti932  1  0.94057163  0.36101260  0.33357514  1.0
  Ti  Ti933  1  0.94057163  0.52767927  0.33357514  1.0
  Ti  Ti934  1  0.94057163  0.69434594  0.33357514  1.0
  Ti  Ti935  1  0.94057163  0.86101260  0.33357514  1.0
  Ti  Ti936  1  0.04771449  0.03958403  0.26214657  1.0
  Ti  Ti937  1  0.04771449  0.20625070  0.26214657  1.0
  Ti  Ti938  1  0.04771449  0.37291736  0.26214657  1.0
  Ti  Ti939  1  0.04771449  0.53958403  0.26214657  1.0
  Ti  Ti940  1  0.04771449  0.70625070  0.26214657  1.0
  Ti  Ti941  1  0.04771449  0.87291736  0.26214657  1.0
  Ti  Ti942  1  0.13104782  0.03958403  0.26214657  1.0
  Ti  Ti943  1  0.13104782  0.20625070  0.26214657  1.0
  Ti  Ti944  1  0.13104782  0.37291736  0.26214657  1.0
  Ti  Ti945  1  0.13104782  0.53958403  0.26214657  1.0
  Ti  Ti946  1  0.13104782  0.70625070  0.26214657  1.0
  Ti  Ti947  1  0.13104782  0.87291736  0.26214657  1.0
  Ti  Ti948  1  0.21438116  0.03958403  0.26214657  1.0
  Ti  Ti949  1  0.21438116  0.20625070  0.26214657  1.0
  Ti  Ti950  1  0.21438116  0.37291736  0.26214657  1.0
  Ti  Ti951  1  0.21438116  0.53958403  0.26214657  1.0
  Ti  Ti952  1  0.21438116  0.70625070  0.26214657  1.0
  Ti  Ti953  1  0.21438116  0.87291736  0.26214657  1.0
  Ti  Ti954  1  0.29771449  0.03958403  0.26214657  1.0
  Ti  Ti955  1  0.29771449  0.20625070  0.26214657  1.0
  Ti  Ti956  1  0.29771449  0.37291736  0.26214657  1.0
  Ti  Ti957  1  0.29771449  0.53958403  0.26214657  1.0
  Ti  Ti958  1  0.29771449  0.70625070  0.26214657  1.0
  Ti  Ti959  1  0.29771449  0.87291736  0.26214657  1.0
  Ti  Ti960  1  0.38104782  0.03958403  0.26214657  1.0
  Ti  Ti961  1  0.38104782  0.20625070  0.26214657  1.0
  Ti  Ti962  1  0.38104782  0.37291736  0.26214657  1.0
  Ti  Ti963  1  0.38104782  0.53958403  0.26214657  1.0
  Ti  Ti964  1  0.38104782  0.70625070  0.26214657  1.0
  Ti  Ti965  1  0.38104782  0.87291736  0.26214657  1.0
  Ti  Ti966  1  0.46438116  0.03958403  0.26214657  1.0
  Ti  Ti967  1  0.46438116  0.20625070  0.26214657  1.0
  Ti  Ti968  1  0.46438116  0.37291736  0.26214657  1.0
  Ti  Ti969  1  0.46438116  0.53958403  0.26214657  1.0
  Ti  Ti970  1  0.46438116  0.70625070  0.26214657  1.0
  Ti  Ti971  1  0.46438116  0.87291736  0.26214657  1.0
  Ti  Ti972  1  0.54771449  0.03958403  0.26214657  1.0
  Ti  Ti973  1  0.54771449  0.20625070  0.26214657  1.0
  Ti  Ti974  1  0.54771449  0.37291736  0.26214657  1.0
  Ti  Ti975  1  0.54771449  0.53958403  0.26214657  1.0
  Ti  Ti976  1  0.54771449  0.70625070  0.26214657  1.0
  Ti  Ti977  1  0.54771449  0.87291736  0.26214657  1.0
  Ti  Ti978  1  0.63104782  0.03958403  0.26214657  1.0
  Ti  Ti979  1  0.63104782  0.20625070  0.26214657  1.0
  Ti  Ti980  1  0.63104782  0.37291736  0.26214657  1.0
  Ti  Ti981  1  0.63104782  0.53958403  0.26214657  1.0
  Ti  Ti982  1  0.63104782  0.70625070  0.26214657  1.0
  Ti  Ti983  1  0.63104782  0.87291736  0.26214657  1.0
  Ti  Ti984  1  0.71438116  0.03958403  0.26214657  1.0
  Ti  Ti985  1  0.71438116  0.20625070  0.26214657  1.0
  Ti  Ti986  1  0.71438116  0.37291736  0.26214657  1.0
  Ti  Ti987  1  0.71438116  0.53958403  0.26214657  1.0
  Ti  Ti988  1  0.71438116  0.70625070  0.26214657  1.0
  Ti  Ti989  1  0.71438116  0.87291736  0.26214657  1.0
  Ti  Ti990  1  0.79771449  0.03958403  0.26214657  1.0
  Ti  Ti991  1  0.79771449  0.20625070  0.26214657  1.0
  Ti  Ti992  1  0.79771449  0.37291736  0.26214657  1.0
  Ti  Ti993  1  0.79771449  0.53958403  0.26214657  1.0
  Ti  Ti994  1  0.79771449  0.70625070  0.26214657  1.0
  Ti  Ti995  1  0.79771449  0.87291736  0.26214657  1.0
  Ti  Ti996  1  0.88104782  0.03958403  0.26214657  1.0
  Ti  Ti997  1  0.88104782  0.20625070  0.26214657  1.0
  Ti  Ti998  1  0.88104782  0.37291736  0.26214657  1.0
  Ti  Ti999  1  0.88104782  0.53958403  0.26214657  1.0
  Ti  Ti1000  1  0.88104782  0.70625070  0.26214657  1.0
  Ti  Ti1001  1  0.88104782  0.87291736  0.26214657  1.0
  Ti  Ti1002  1  0.96438116  0.03958403  0.26214657  1.0
  Ti  Ti1003  1  0.96438116  0.20625070  0.26214657  1.0
  Ti  Ti1004  1  0.96438116  0.37291736  0.26214657  1.0
  Ti  Ti1005  1  0.96438116  0.53958403  0.26214657  1.0
  Ti  Ti1006  1  0.96438116  0.70625070  0.26214657  1.0
  Ti  Ti1007  1  0.96438116  0.87291736  0.26214657  1.0
  Ti  Ti1008  1  0.01691554  0.11893028  0.35296817  1.0
  Ti  Ti1009  1  0.01691554  0.28559695  0.35296817  1.0
  Ti  Ti1010  1  0.01691554  0.45226361  0.35296817  1.0
  Ti  Ti1011  1  0.01691554  0.61893028  0.35296817  1.0
  Ti  Ti1012  1  0.01691554  0.78559695  0.35296817  1.0
  Ti  Ti1013  1  0.01691554  0.95226361  0.35296817  1.0
  Ti  Ti1014  1  0.10024887  0.11893028  0.35296817  1.0
  Ti  Ti1015  1  0.10024887  0.28559695  0.35296817  1.0
  Ti  Ti1016  1  0.10024887  0.45226361  0.35296817  1.0
  Ti  Ti1017  1  0.10024887  0.61893028  0.35296817  1.0
  Ti  Ti1018  1  0.10024887  0.78559695  0.35296817  1.0
  Ti  Ti1019  1  0.10024887  0.95226361  0.35296817  1.0
  Ti  Ti1020  1  0.18358220  0.11893028  0.35296817  1.0
  Ti  Ti1021  1  0.18358220  0.28559695  0.35296817  1.0
  Ti  Ti1022  1  0.18358220  0.45226361  0.35296817  1.0
  Ti  Ti1023  1  0.18358220  0.61893028  0.35296817  1.0
  Ti  Ti1024  1  0.18358220  0.78559695  0.35296817  1.0
  Ti  Ti1025  1  0.18358220  0.95226361  0.35296817  1.0
  Ti  Ti1026  1  0.26691554  0.11893028  0.35296817  1.0
  Ti  Ti1027  1  0.26691554  0.28559695  0.35296817  1.0
  Ti  Ti1028  1  0.26691554  0.45226361  0.35296817  1.0
  Ti  Ti1029  1  0.26691554  0.61893028  0.35296817  1.0
  Ti  Ti1030  1  0.26691554  0.78559695  0.35296817  1.0
  Ti  Ti1031  1  0.26691554  0.95226361  0.35296817  1.0
  Ti  Ti1032  1  0.35024887  0.11893028  0.35296817  1.0
  Ti  Ti1033  1  0.35024887  0.28559695  0.35296817  1.0
  Ti  Ti1034  1  0.35024887  0.45226361  0.35296817  1.0
  Ti  Ti1035  1  0.35024887  0.61893028  0.35296817  1.0
  Ti  Ti1036  1  0.35024887  0.78559695  0.35296817  1.0
  Ti  Ti1037  1  0.35024887  0.95226361  0.35296817  1.0
  Ti  Ti1038  1  0.43358220  0.11893028  0.35296817  1.0
  Ti  Ti1039  1  0.43358220  0.28559695  0.35296817  1.0
  Ti  Ti1040  1  0.43358220  0.45226361  0.35296817  1.0
  Ti  Ti1041  1  0.43358220  0.61893028  0.35296817  1.0
  Ti  Ti1042  1  0.43358220  0.78559695  0.35296817  1.0
  Ti  Ti1043  1  0.43358220  0.95226361  0.35296817  1.0
  Ti  Ti1044  1  0.51691554  0.11893028  0.35296817  1.0
  Ti  Ti1045  1  0.51691554  0.28559695  0.35296817  1.0
  Ti  Ti1046  1  0.51691554  0.45226361  0.35296817  1.0
  Ti  Ti1047  1  0.51691554  0.61893028  0.35296817  1.0
  Ti  Ti1048  1  0.51691554  0.78559695  0.35296817  1.0
  Ti  Ti1049  1  0.51691554  0.95226361  0.35296817  1.0
  Ti  Ti1050  1  0.60024887  0.11893028  0.35296817  1.0
  Ti  Ti1051  1  0.60024887  0.28559695  0.35296817  1.0
  Ti  Ti1052  1  0.60024887  0.45226361  0.35296817  1.0
  Ti  Ti1053  1  0.60024887  0.61893028  0.35296817  1.0
  Ti  Ti1054  1  0.60024887  0.78559695  0.35296817  1.0
  Ti  Ti1055  1  0.60024887  0.95226361  0.35296817  1.0
  Ti  Ti1056  1  0.68358220  0.11893028  0.35296817  1.0
  Ti  Ti1057  1  0.68358220  0.28559695  0.35296817  1.0
  Ti  Ti1058  1  0.68358220  0.45226361  0.35296817  1.0
  Ti  Ti1059  1  0.68358220  0.61893028  0.35296817  1.0
  Ti  Ti1060  1  0.68358220  0.78559695  0.35296817  1.0
  Ti  Ti1061  1  0.68358220  0.95226361  0.35296817  1.0
  Ti  Ti1062  1  0.76691554  0.11893028  0.35296817  1.0
  Ti  Ti1063  1  0.76691554  0.28559695  0.35296817  1.0
  Ti  Ti1064  1  0.76691554  0.45226361  0.35296817  1.0
  Ti  Ti1065  1  0.76691554  0.61893028  0.35296817  1.0
  Ti  Ti1066  1  0.76691554  0.78559695  0.35296817  1.0
  Ti  Ti1067  1  0.76691554  0.95226361  0.35296817  1.0
  Ti  Ti1068  1  0.85024887  0.11893028  0.35296817  1.0
  Ti  Ti1069  1  0.85024887  0.28559695  0.35296817  1.0
  Ti  Ti1070  1  0.85024887  0.45226361  0.35296817  1.0
  Ti  Ti1071  1  0.85024887  0.61893028  0.35296817  1.0
  Ti  Ti1072  1  0.85024887  0.78559695  0.35296817  1.0
  Ti  Ti1073  1  0.85024887  0.95226361  0.35296817  1.0
  Ti  Ti1074  1  0.93358220  0.11893028  0.35296817  1.0
  Ti  Ti1075  1  0.93358220  0.28559695  0.35296817  1.0
  Ti  Ti1076  1  0.93358220  0.45226361  0.35296817  1.0
  Ti  Ti1077  1  0.93358220  0.61893028  0.35296817  1.0
  Ti  Ti1078  1  0.93358220  0.78559695  0.35296817  1.0
  Ti  Ti1079  1  0.93358220  0.95226361  0.35296817  1.0
  Ti  Ti1080  1  0.04072506  0.13083504  0.28153960  1.0
  Ti  Ti1081  1  0.04072506  0.29750171  0.28153960  1.0
  Ti  Ti1082  1  0.04072506  0.46416838  0.28153960  1.0
  Ti  Ti1083  1  0.04072506  0.63083504  0.28153960  1.0
  Ti  Ti1084  1  0.04072506  0.79750171  0.28153960  1.0
  Ti  Ti1085  1  0.04072506  0.96416838  0.28153960  1.0
  Ti  Ti1086  1  0.12405839  0.13083504  0.28153960  1.0
  Ti  Ti1087  1  0.12405839  0.29750171  0.28153960  1.0
  Ti  Ti1088  1  0.12405839  0.46416838  0.28153960  1.0
  Ti  Ti1089  1  0.12405839  0.63083504  0.28153960  1.0
  Ti  Ti1090  1  0.12405839  0.79750171  0.28153960  1.0
  Ti  Ti1091  1  0.12405839  0.96416838  0.28153960  1.0
  Ti  Ti1092  1  0.20739173  0.13083504  0.28153960  1.0
  Ti  Ti1093  1  0.20739173  0.29750171  0.28153960  1.0
  Ti  Ti1094  1  0.20739173  0.46416838  0.28153960  1.0
  Ti  Ti1095  1  0.20739173  0.63083504  0.28153960  1.0
  Ti  Ti1096  1  0.20739173  0.79750171  0.28153960  1.0
  Ti  Ti1097  1  0.20739173  0.96416838  0.28153960  1.0
  Ti  Ti1098  1  0.29072506  0.13083504  0.28153960  1.0
  Ti  Ti1099  1  0.29072506  0.29750171  0.28153960  1.0
  Ti  Ti1100  1  0.29072506  0.46416838  0.28153960  1.0
  Ti  Ti1101  1  0.29072506  0.63083504  0.28153960  1.0
  Ti  Ti1102  1  0.29072506  0.79750171  0.28153960  1.0
  Ti  Ti1103  1  0.29072506  0.96416838  0.28153960  1.0
  Ti  Ti1104  1  0.37405839  0.13083504  0.28153960  1.0
  Ti  Ti1105  1  0.37405839  0.29750171  0.28153960  1.0
  Ti  Ti1106  1  0.37405839  0.46416838  0.28153960  1.0
  Ti  Ti1107  1  0.37405839  0.63083504  0.28153960  1.0
  Ti  Ti1108  1  0.37405839  0.79750171  0.28153960  1.0
  Ti  Ti1109  1  0.37405839  0.96416838  0.28153960  1.0
  Ti  Ti1110  1  0.45739173  0.13083504  0.28153960  1.0
  Ti  Ti1111  1  0.45739173  0.29750171  0.28153960  1.0
  Ti  Ti1112  1  0.45739173  0.46416838  0.28153960  1.0
  Ti  Ti1113  1  0.45739173  0.63083504  0.28153960  1.0
  Ti  Ti1114  1  0.45739173  0.79750171  0.28153960  1.0
  Ti  Ti1115  1  0.45739173  0.96416838  0.28153960  1.0
  Ti  Ti1116  1  0.54072506  0.13083504  0.28153960  1.0
  Ti  Ti1117  1  0.54072506  0.29750171  0.28153960  1.0
  Ti  Ti1118  1  0.54072506  0.46416838  0.28153960  1.0
  Ti  Ti1119  1  0.54072506  0.63083504  0.28153960  1.0
  Ti  Ti1120  1  0.54072506  0.79750171  0.28153960  1.0
  Ti  Ti1121  1  0.54072506  0.96416838  0.28153960  1.0
  Ti  Ti1122  1  0.62405839  0.13083504  0.28153960  1.0
  Ti  Ti1123  1  0.62405839  0.29750171  0.28153960  1.0
  Ti  Ti1124  1  0.62405839  0.46416838  0.28153960  1.0
  Ti  Ti1125  1  0.62405839  0.63083504  0.28153960  1.0
  Ti  Ti1126  1  0.62405839  0.79750171  0.28153960  1.0
  Ti  Ti1127  1  0.62405839  0.96416838  0.28153960  1.0
  Ti  Ti1128  1  0.70739173  0.13083504  0.28153960  1.0
  Ti  Ti1129  1  0.70739173  0.29750171  0.28153960  1.0
  Ti  Ti1130  1  0.70739173  0.46416838  0.28153960  1.0
  Ti  Ti1131  1  0.70739173  0.63083504  0.28153960  1.0
  Ti  Ti1132  1  0.70739173  0.79750171  0.28153960  1.0
  Ti  Ti1133  1  0.70739173  0.96416838  0.28153960  1.0
  Ti  Ti1134  1  0.79072506  0.13083504  0.28153960  1.0
  Ti  Ti1135  1  0.79072506  0.29750171  0.28153960  1.0
  Ti  Ti1136  1  0.79072506  0.46416838  0.28153960  1.0
  Ti  Ti1137  1  0.79072506  0.63083504  0.28153960  1.0
  Ti  Ti1138  1  0.79072506  0.79750171  0.28153960  1.0
  Ti  Ti1139  1  0.79072506  0.96416838  0.28153960  1.0
  Ti  Ti1140  1  0.87405839  0.13083504  0.28153960  1.0
  Ti  Ti1141  1  0.87405839  0.29750171  0.28153960  1.0
  Ti  Ti1142  1  0.87405839  0.46416838  0.28153960  1.0
  Ti  Ti1143  1  0.87405839  0.63083504  0.28153960  1.0
  Ti  Ti1144  1  0.87405839  0.79750171  0.28153960  1.0
  Ti  Ti1145  1  0.87405839  0.96416838  0.28153960  1.0
  Ti  Ti1146  1  0.95739173  0.13083504  0.28153960  1.0
  Ti  Ti1147  1  0.95739173  0.29750171  0.28153960  1.0
  Ti  Ti1148  1  0.95739173  0.46416838  0.28153960  1.0
  Ti  Ti1149  1  0.95739173  0.63083504  0.28153960  1.0
  Ti  Ti1150  1  0.95739173  0.79750171  0.28153960  1.0
  Ti  Ti1151  1  0.95739173  0.96416838  0.28153960  1.0
  Ti  Ti1152  1  0.06371414  0.05139563  0.33726944  1.0
  Ti  Ti1153  1  0.06371414  0.21806229  0.33726944  1.0
  Ti  Ti1154  1  0.06371414  0.38472896  0.33726944  1.0
  Ti  Ti1155  1  0.06371414  0.55139563  0.33726944  1.0
  Ti  Ti1156  1  0.06371414  0.71806229  0.33726944  1.0
  Ti  Ti1157  1  0.06371414  0.88472896  0.33726944  1.0
  Ti  Ti1158  1  0.14704748  0.05139563  0.33726944  1.0
  Ti  Ti1159  1  0.14704748  0.21806229  0.33726944  1.0
  Ti  Ti1160  1  0.14704748  0.38472896  0.33726944  1.0
  Ti  Ti1161  1  0.14704748  0.55139563  0.33726944  1.0
  Ti  Ti1162  1  0.14704748  0.71806229  0.33726944  1.0
  Ti  Ti1163  1  0.14704748  0.88472896  0.33726944  1.0
  Ti  Ti1164  1  0.23038081  0.05139563  0.33726944  1.0
  Ti  Ti1165  1  0.23038081  0.21806229  0.33726944  1.0
  Ti  Ti1166  1  0.23038081  0.38472896  0.33726944  1.0
  Ti  Ti1167  1  0.23038081  0.55139563  0.33726944  1.0
  Ti  Ti1168  1  0.23038081  0.71806229  0.33726944  1.0
  Ti  Ti1169  1  0.23038081  0.88472896  0.33726944  1.0
  Ti  Ti1170  1  0.31371414  0.05139563  0.33726944  1.0
  Ti  Ti1171  1  0.31371414  0.21806229  0.33726944  1.0
  Ti  Ti1172  1  0.31371414  0.38472896  0.33726944  1.0
  Ti  Ti1173  1  0.31371414  0.55139563  0.33726944  1.0
  Ti  Ti1174  1  0.31371414  0.71806229  0.33726944  1.0
  Ti  Ti1175  1  0.31371414  0.88472896  0.33726944  1.0
  Ti  Ti1176  1  0.39704748  0.05139563  0.33726944  1.0
  Ti  Ti1177  1  0.39704748  0.21806229  0.33726944  1.0
  Ti  Ti1178  1  0.39704748  0.38472896  0.33726944  1.0
  Ti  Ti1179  1  0.39704748  0.55139563  0.33726944  1.0
  Ti  Ti1180  1  0.39704748  0.71806229  0.33726944  1.0
  Ti  Ti1181  1  0.39704748  0.88472896  0.33726944  1.0
  Ti  Ti1182  1  0.48038081  0.05139563  0.33726944  1.0
  Ti  Ti1183  1  0.48038081  0.21806229  0.33726944  1.0
  Ti  Ti1184  1  0.48038081  0.38472896  0.33726944  1.0
  Ti  Ti1185  1  0.48038081  0.55139563  0.33726944  1.0
  Ti  Ti1186  1  0.48038081  0.71806229  0.33726944  1.0
  Ti  Ti1187  1  0.48038081  0.88472896  0.33726944  1.0
  Ti  Ti1188  1  0.56371414  0.05139563  0.33726944  1.0
  Ti  Ti1189  1  0.56371414  0.21806229  0.33726944  1.0
  Ti  Ti1190  1  0.56371414  0.38472896  0.33726944  1.0
  Ti  Ti1191  1  0.56371414  0.55139563  0.33726944  1.0
  Ti  Ti1192  1  0.56371414  0.71806229  0.33726944  1.0
  Ti  Ti1193  1  0.56371414  0.88472896  0.33726944  1.0
  Ti  Ti1194  1  0.64704748  0.05139563  0.33726944  1.0
  Ti  Ti1195  1  0.64704748  0.21806229  0.33726944  1.0
  Ti  Ti1196  1  0.64704748  0.38472896  0.33726944  1.0
  Ti  Ti1197  1  0.64704748  0.55139563  0.33726944  1.0
  Ti  Ti1198  1  0.64704748  0.71806229  0.33726944  1.0
  Ti  Ti1199  1  0.64704748  0.88472896  0.33726944  1.0
  Ti  Ti1200  1  0.73038081  0.05139563  0.33726944  1.0
  Ti  Ti1201  1  0.73038081  0.21806229  0.33726944  1.0
  Ti  Ti1202  1  0.73038081  0.38472896  0.33726944  1.0
  Ti  Ti1203  1  0.73038081  0.55139563  0.33726944  1.0
  Ti  Ti1204  1  0.73038081  0.71806229  0.33726944  1.0
  Ti  Ti1205  1  0.73038081  0.88472896  0.33726944  1.0
  Ti  Ti1206  1  0.81371414  0.05139563  0.33726944  1.0
  Ti  Ti1207  1  0.81371414  0.21806229  0.33726944  1.0
  Ti  Ti1208  1  0.81371414  0.38472896  0.33726944  1.0
  Ti  Ti1209  1  0.81371414  0.55139563  0.33726944  1.0
  Ti  Ti1210  1  0.81371414  0.71806229  0.33726944  1.0
  Ti  Ti1211  1  0.81371414  0.88472896  0.33726944  1.0
  Ti  Ti1212  1  0.89704748  0.05139563  0.33726944  1.0
  Ti  Ti1213  1  0.89704748  0.21806229  0.33726944  1.0
  Ti  Ti1214  1  0.89704748  0.38472896  0.33726944  1.0
  Ti  Ti1215  1  0.89704748  0.55139563  0.33726944  1.0
  Ti  Ti1216  1  0.89704748  0.71806229  0.33726944  1.0
  Ti  Ti1217  1  0.89704748  0.88472896  0.33726944  1.0
  Ti  Ti1218  1  0.98038081  0.05139563  0.33726944  1.0
  Ti  Ti1219  1  0.98038081  0.21806229  0.33726944  1.0
  Ti  Ti1220  1  0.98038081  0.38472896  0.33726944  1.0
  Ti  Ti1221  1  0.98038081  0.55139563  0.33726944  1.0
  Ti  Ti1222  1  0.98038081  0.71806229  0.33726944  1.0
  Ti  Ti1223  1  0.98038081  0.88472896  0.33726944  1.0
  Ti  Ti1224  1  0.00419034  0.06330039  0.26584087  1.0
  Ti  Ti1225  1  0.00419034  0.22996705  0.26584087  1.0
  Ti  Ti1226  1  0.00419034  0.39663372  0.26584087  1.0
  Ti  Ti1227  1  0.00419034  0.56330039  0.26584087  1.0
  Ti  Ti1228  1  0.00419034  0.72996705  0.26584087  1.0
  Ti  Ti1229  1  0.00419034  0.89663372  0.26584087  1.0
  Ti  Ti1230  1  0.08752367  0.06330039  0.26584087  1.0
  Ti  Ti1231  1  0.08752367  0.22996705  0.26584087  1.0
  Ti  Ti1232  1  0.08752367  0.39663372  0.26584087  1.0
  Ti  Ti1233  1  0.08752367  0.56330039  0.26584087  1.0
  Ti  Ti1234  1  0.08752367  0.72996705  0.26584087  1.0
  Ti  Ti1235  1  0.08752367  0.89663372  0.26584087  1.0
  Ti  Ti1236  1  0.17085700  0.06330039  0.26584087  1.0
  Ti  Ti1237  1  0.17085700  0.22996705  0.26584087  1.0
  Ti  Ti1238  1  0.17085700  0.39663372  0.26584087  1.0
  Ti  Ti1239  1  0.17085700  0.56330039  0.26584087  1.0
  Ti  Ti1240  1  0.17085700  0.72996705  0.26584087  1.0
  Ti  Ti1241  1  0.17085700  0.89663372  0.26584087  1.0
  Ti  Ti1242  1  0.25419034  0.06330039  0.26584087  1.0
  Ti  Ti1243  1  0.25419034  0.22996705  0.26584087  1.0
  Ti  Ti1244  1  0.25419034  0.39663372  0.26584087  1.0
  Ti  Ti1245  1  0.25419034  0.56330039  0.26584087  1.0
  Ti  Ti1246  1  0.25419034  0.72996705  0.26584087  1.0
  Ti  Ti1247  1  0.25419034  0.89663372  0.26584087  1.0
  Ti  Ti1248  1  0.33752367  0.06330039  0.26584087  1.0
  Ti  Ti1249  1  0.33752367  0.22996705  0.26584087  1.0
  Ti  Ti1250  1  0.33752367  0.39663372  0.26584087  1.0
  Ti  Ti1251  1  0.33752367  0.56330039  0.26584087  1.0
  Ti  Ti1252  1  0.33752367  0.72996705  0.26584087  1.0
  Ti  Ti1253  1  0.33752367  0.89663372  0.26584087  1.0
  Ti  Ti1254  1  0.42085700  0.06330039  0.26584087  1.0
  Ti  Ti1255  1  0.42085700  0.22996705  0.26584087  1.0
  Ti  Ti1256  1  0.42085700  0.39663372  0.26584087  1.0
  Ti  Ti1257  1  0.42085700  0.56330039  0.26584087  1.0
  Ti  Ti1258  1  0.42085700  0.72996705  0.26584087  1.0
  Ti  Ti1259  1  0.42085700  0.89663372  0.26584087  1.0
  Ti  Ti1260  1  0.50419034  0.06330039  0.26584087  1.0
  Ti  Ti1261  1  0.50419034  0.22996705  0.26584087  1.0
  Ti  Ti1262  1  0.50419034  0.39663372  0.26584087  1.0
  Ti  Ti1263  1  0.50419034  0.56330039  0.26584087  1.0
  Ti  Ti1264  1  0.50419034  0.72996705  0.26584087  1.0
  Ti  Ti1265  1  0.50419034  0.89663372  0.26584087  1.0
  Ti  Ti1266  1  0.58752367  0.06330039  0.26584087  1.0
  Ti  Ti1267  1  0.58752367  0.22996705  0.26584087  1.0
  Ti  Ti1268  1  0.58752367  0.39663372  0.26584087  1.0
  Ti  Ti1269  1  0.58752367  0.56330039  0.26584087  1.0
  Ti  Ti1270  1  0.58752367  0.72996705  0.26584087  1.0
  Ti  Ti1271  1  0.58752367  0.89663372  0.26584087  1.0
  Ti  Ti1272  1  0.67085700  0.06330039  0.26584087  1.0
  Ti  Ti1273  1  0.67085700  0.22996705  0.26584087  1.0
  Ti  Ti1274  1  0.67085700  0.39663372  0.26584087  1.0
  Ti  Ti1275  1  0.67085700  0.56330039  0.26584087  1.0
  Ti  Ti1276  1  0.67085700  0.72996705  0.26584087  1.0
  Ti  Ti1277  1  0.67085700  0.89663372  0.26584087  1.0
  Ti  Ti1278  1  0.75419034  0.06330039  0.26584087  1.0
  Ti  Ti1279  1  0.75419034  0.22996705  0.26584087  1.0
  Ti  Ti1280  1  0.75419034  0.39663372  0.26584087  1.0
  Ti  Ti1281  1  0.75419034  0.56330039  0.26584087  1.0
  Ti  Ti1282  1  0.75419034  0.72996705  0.26584087  1.0
  Ti  Ti1283  1  0.75419034  0.89663372  0.26584087  1.0
  Ti  Ti1284  1  0.83752367  0.06330039  0.26584087  1.0
  Ti  Ti1285  1  0.83752367  0.22996705  0.26584087  1.0
  Ti  Ti1286  1  0.83752367  0.39663372  0.26584087  1.0
  Ti  Ti1287  1  0.83752367  0.56330039  0.26584087  1.0
  Ti  Ti1288  1  0.83752367  0.72996705  0.26584087  1.0
  Ti  Ti1289  1  0.83752367  0.89663372  0.26584087  1.0
  Ti  Ti1290  1  0.92085700  0.06330039  0.26584087  1.0
  Ti  Ti1291  1  0.92085700  0.22996705  0.26584087  1.0
  Ti  Ti1292  1  0.92085700  0.39663372  0.26584087  1.0
  Ti  Ti1293  1  0.92085700  0.56330039  0.26584087  1.0
  Ti  Ti1294  1  0.92085700  0.72996705  0.26584087  1.0
  Ti  Ti1295  1  0.92085700  0.89663372  0.26584087  1.0
  Ti  Ti1296  1  0.06746048  0.00402291  0.32991487  1.0
  Ti  Ti1297  1  0.06746048  0.17068957  0.32991487  1.0
  Ti  Ti1298  1  0.06746048  0.33735624  0.32991487  1.0
  Ti  Ti1299  1  0.06746048  0.50402291  0.32991487  1.0
  Ti  Ti1300  1  0.06746048  0.67068957  0.32991487  1.0
  Ti  Ti1301  1  0.06746048  0.83735624  0.32991487  1.0
  Ti  Ti1302  1  0.15079381  0.00402291  0.32991487  1.0
  Ti  Ti1303  1  0.15079381  0.17068957  0.32991487  1.0
  Ti  Ti1304  1  0.15079381  0.33735624  0.32991487  1.0
  Ti  Ti1305  1  0.15079381  0.50402291  0.32991487  1.0
  Ti  Ti1306  1  0.15079381  0.67068957  0.32991487  1.0
  Ti  Ti1307  1  0.15079381  0.83735624  0.32991487  1.0
  Ti  Ti1308  1  0.23412714  0.00402291  0.32991487  1.0
  Ti  Ti1309  1  0.23412714  0.17068957  0.32991487  1.0
  Ti  Ti1310  1  0.23412714  0.33735624  0.32991487  1.0
  Ti  Ti1311  1  0.23412714  0.50402291  0.32991487  1.0
  Ti  Ti1312  1  0.23412714  0.67068957  0.32991487  1.0
  Ti  Ti1313  1  0.23412714  0.83735624  0.32991487  1.0
  Ti  Ti1314  1  0.31746048  0.00402291  0.32991487  1.0
  Ti  Ti1315  1  0.31746048  0.17068957  0.32991487  1.0
  Ti  Ti1316  1  0.31746048  0.33735624  0.32991487  1.0
  Ti  Ti1317  1  0.31746048  0.50402291  0.32991487  1.0
  Ti  Ti1318  1  0.31746048  0.67068957  0.32991487  1.0
  Ti  Ti1319  1  0.31746048  0.83735624  0.32991487  1.0
  Ti  Ti1320  1  0.40079381  0.00402291  0.32991487  1.0
  Ti  Ti1321  1  0.40079381  0.17068957  0.32991487  1.0
  Ti  Ti1322  1  0.40079381  0.33735624  0.32991487  1.0
  Ti  Ti1323  1  0.40079381  0.50402291  0.32991487  1.0
  Ti  Ti1324  1  0.40079381  0.67068957  0.32991487  1.0
  Ti  Ti1325  1  0.40079381  0.83735624  0.32991487  1.0
  Ti  Ti1326  1  0.48412714  0.00402291  0.32991487  1.0
  Ti  Ti1327  1  0.48412714  0.17068957  0.32991487  1.0
  Ti  Ti1328  1  0.48412714  0.33735624  0.32991487  1.0
  Ti  Ti1329  1  0.48412714  0.50402291  0.32991487  1.0
  Ti  Ti1330  1  0.48412714  0.67068957  0.32991487  1.0
  Ti  Ti1331  1  0.48412714  0.83735624  0.32991487  1.0
  Ti  Ti1332  1  0.56746048  0.00402291  0.32991487  1.0
  Ti  Ti1333  1  0.56746048  0.17068957  0.32991487  1.0
  Ti  Ti1334  1  0.56746048  0.33735624  0.32991487  1.0
  Ti  Ti1335  1  0.56746048  0.50402291  0.32991487  1.0
  Ti  Ti1336  1  0.56746048  0.67068957  0.32991487  1.0
  Ti  Ti1337  1  0.56746048  0.83735624  0.32991487  1.0
  Ti  Ti1338  1  0.65079381  0.00402291  0.32991487  1.0
  Ti  Ti1339  1  0.65079381  0.17068957  0.32991487  1.0
  Ti  Ti1340  1  0.65079381  0.33735624  0.32991487  1.0
  Ti  Ti1341  1  0.65079381  0.50402291  0.32991487  1.0
  Ti  Ti1342  1  0.65079381  0.67068957  0.32991487  1.0
  Ti  Ti1343  1  0.65079381  0.83735624  0.32991487  1.0
  Ti  Ti1344  1  0.73412714  0.00402291  0.32991487  1.0
  Ti  Ti1345  1  0.73412714  0.17068957  0.32991487  1.0
  Ti  Ti1346  1  0.73412714  0.33735624  0.32991487  1.0
  Ti  Ti1347  1  0.73412714  0.50402291  0.32991487  1.0
  Ti  Ti1348  1  0.73412714  0.67068957  0.32991487  1.0
  Ti  Ti1349  1  0.73412714  0.83735624  0.32991487  1.0
  Ti  Ti1350  1  0.81746048  0.00402291  0.32991487  1.0
  Ti  Ti1351  1  0.81746048  0.17068957  0.32991487  1.0
  Ti  Ti1352  1  0.81746048  0.33735624  0.32991487  1.0
  Ti  Ti1353  1  0.81746048  0.50402291  0.32991487  1.0
  Ti  Ti1354  1  0.81746048  0.67068957  0.32991487  1.0
  Ti  Ti1355  1  0.81746048  0.83735624  0.32991487  1.0
  Ti  Ti1356  1  0.90079381  0.00402291  0.32991487  1.0
  Ti  Ti1357  1  0.90079381  0.17068957  0.32991487  1.0
  Ti  Ti1358  1  0.90079381  0.33735624  0.32991487  1.0
  Ti  Ti1359  1  0.90079381  0.50402291  0.32991487  1.0
  Ti  Ti1360  1  0.90079381  0.67068957  0.32991487  1.0
  Ti  Ti1361  1  0.90079381  0.83735624  0.32991487  1.0
  Ti  Ti1362  1  0.98412714  0.00402291  0.32991487  1.0
  Ti  Ti1363  1  0.98412714  0.17068957  0.32991487  1.0
  Ti  Ti1364  1  0.98412714  0.33735624  0.32991487  1.0
  Ti  Ti1365  1  0.98412714  0.50402291  0.32991487  1.0
  Ti  Ti1366  1  0.98412714  0.67068957  0.32991487  1.0
  Ti  Ti1367  1  0.98412714  0.83735624  0.32991487  1.0
  Ti  Ti1368  1  0.00793667  0.01592767  0.25848630  1.0
  Ti  Ti1369  1  0.00793667  0.18259434  0.25848630  1.0
  Ti  Ti1370  1  0.00793667  0.34926100  0.25848630  1.0
  Ti  Ti1371  1  0.00793667  0.51592767  0.25848630  1.0
  Ti  Ti1372  1  0.00793667  0.68259434  0.25848630  1.0
  Ti  Ti1373  1  0.00793667  0.84926100  0.25848630  1.0
  Ti  Ti1374  1  0.09127000  0.01592767  0.25848630  1.0
  Ti  Ti1375  1  0.09127000  0.18259434  0.25848630  1.0
  Ti  Ti1376  1  0.09127000  0.34926100  0.25848630  1.0
  Ti  Ti1377  1  0.09127000  0.51592767  0.25848630  1.0
  Ti  Ti1378  1  0.09127000  0.68259434  0.25848630  1.0
  Ti  Ti1379  1  0.09127000  0.84926100  0.25848630  1.0
  Ti  Ti1380  1  0.17460333  0.01592767  0.25848630  1.0
  Ti  Ti1381  1  0.17460333  0.18259434  0.25848630  1.0
  Ti  Ti1382  1  0.17460333  0.34926100  0.25848630  1.0
  Ti  Ti1383  1  0.17460333  0.51592767  0.25848630  1.0
  Ti  Ti1384  1  0.17460333  0.68259434  0.25848630  1.0
  Ti  Ti1385  1  0.17460333  0.84926100  0.25848630  1.0
  Ti  Ti1386  1  0.25793667  0.01592767  0.25848630  1.0
  Ti  Ti1387  1  0.25793667  0.18259434  0.25848630  1.0
  Ti  Ti1388  1  0.25793667  0.34926100  0.25848630  1.0
  Ti  Ti1389  1  0.25793667  0.51592767  0.25848630  1.0
  Ti  Ti1390  1  0.25793667  0.68259434  0.25848630  1.0
  Ti  Ti1391  1  0.25793667  0.84926100  0.25848630  1.0
  Ti  Ti1392  1  0.34127000  0.01592767  0.25848630  1.0
  Ti  Ti1393  1  0.34127000  0.18259434  0.25848630  1.0
  Ti  Ti1394  1  0.34127000  0.34926100  0.25848630  1.0
  Ti  Ti1395  1  0.34127000  0.51592767  0.25848630  1.0
  Ti  Ti1396  1  0.34127000  0.68259434  0.25848630  1.0
  Ti  Ti1397  1  0.34127000  0.84926100  0.25848630  1.0
  Ti  Ti1398  1  0.42460333  0.01592767  0.25848630  1.0
  Ti  Ti1399  1  0.42460333  0.18259434  0.25848630  1.0
  Ti  Ti1400  1  0.42460333  0.34926100  0.25848630  1.0
  Ti  Ti1401  1  0.42460333  0.51592767  0.25848630  1.0
  Ti  Ti1402  1  0.42460333  0.68259434  0.25848630  1.0
  Ti  Ti1403  1  0.42460333  0.84926100  0.25848630  1.0
  Ti  Ti1404  1  0.50793667  0.01592767  0.25848630  1.0
  Ti  Ti1405  1  0.50793667  0.18259434  0.25848630  1.0
  Ti  Ti1406  1  0.50793667  0.34926100  0.25848630  1.0
  Ti  Ti1407  1  0.50793667  0.51592767  0.25848630  1.0
  Ti  Ti1408  1  0.50793667  0.68259434  0.25848630  1.0
  Ti  Ti1409  1  0.50793667  0.84926100  0.25848630  1.0
  Ti  Ti1410  1  0.59127000  0.01592767  0.25848630  1.0
  Ti  Ti1411  1  0.59127000  0.18259434  0.25848630  1.0
  Ti  Ti1412  1  0.59127000  0.34926100  0.25848630  1.0
  Ti  Ti1413  1  0.59127000  0.51592767  0.25848630  1.0
  Ti  Ti1414  1  0.59127000  0.68259434  0.25848630  1.0
  Ti  Ti1415  1  0.59127000  0.84926100  0.25848630  1.0
  Ti  Ti1416  1  0.67460333  0.01592767  0.25848630  1.0
  Ti  Ti1417  1  0.67460333  0.18259434  0.25848630  1.0
  Ti  Ti1418  1  0.67460333  0.34926100  0.25848630  1.0
  Ti  Ti1419  1  0.67460333  0.51592767  0.25848630  1.0
  Ti  Ti1420  1  0.67460333  0.68259434  0.25848630  1.0
  Ti  Ti1421  1  0.67460333  0.84926100  0.25848630  1.0
  Ti  Ti1422  1  0.75793667  0.01592767  0.25848630  1.0
  Ti  Ti1423  1  0.75793667  0.18259434  0.25848630  1.0
  Ti  Ti1424  1  0.75793667  0.34926100  0.25848630  1.0
  Ti  Ti1425  1  0.75793667  0.51592767  0.25848630  1.0
  Ti  Ti1426  1  0.75793667  0.68259434  0.25848630  1.0
  Ti  Ti1427  1  0.75793667  0.84926100  0.25848630  1.0
  Ti  Ti1428  1  0.84127000  0.01592767  0.25848630  1.0
  Ti  Ti1429  1  0.84127000  0.18259434  0.25848630  1.0
  Ti  Ti1430  1  0.84127000  0.34926100  0.25848630  1.0
  Ti  Ti1431  1  0.84127000  0.51592767  0.25848630  1.0
  Ti  Ti1432  1  0.84127000  0.68259434  0.25848630  1.0
  Ti  Ti1433  1  0.84127000  0.84926100  0.25848630  1.0
  Ti  Ti1434  1  0.92460333  0.01592767  0.25848630  1.0
  Ti  Ti1435  1  0.92460333  0.18259434  0.25848630  1.0
  Ti  Ti1436  1  0.92460333  0.34926100  0.25848630  1.0
  Ti  Ti1437  1  0.92460333  0.51592767  0.25848630  1.0
  Ti  Ti1438  1  0.92460333  0.68259434  0.25848630  1.0
  Ti  Ti1439  1  0.92460333  0.84926100  0.25848630  1.0
  Ti  Ti1440  1  0.06050015  0.09531526  0.34718845  1.0
  Ti  Ti1441  1  0.06050015  0.26198192  0.34718845  1.0
  Ti  Ti1442  1  0.06050015  0.42864859  0.34718845  1.0
  Ti  Ti1443  1  0.06050015  0.59531526  0.34718845  1.0
  Ti  Ti1444  1  0.06050015  0.76198192  0.34718845  1.0
  Ti  Ti1445  1  0.06050015  0.92864859  0.34718845  1.0
  Ti  Ti1446  1  0.14383348  0.09531526  0.34718845  1.0
  Ti  Ti1447  1  0.14383348  0.26198192  0.34718845  1.0
  Ti  Ti1448  1  0.14383348  0.42864859  0.34718845  1.0
  Ti  Ti1449  1  0.14383348  0.59531526  0.34718845  1.0
  Ti  Ti1450  1  0.14383348  0.76198192  0.34718845  1.0
  Ti  Ti1451  1  0.14383348  0.92864859  0.34718845  1.0
  Ti  Ti1452  1  0.22716682  0.09531526  0.34718845  1.0
  Ti  Ti1453  1  0.22716682  0.26198192  0.34718845  1.0
  Ti  Ti1454  1  0.22716682  0.42864859  0.34718845  1.0
  Ti  Ti1455  1  0.22716682  0.59531526  0.34718845  1.0
  Ti  Ti1456  1  0.22716682  0.76198192  0.34718845  1.0
  Ti  Ti1457  1  0.22716682  0.92864859  0.34718845  1.0
  Ti  Ti1458  1  0.31050015  0.09531526  0.34718845  1.0
  Ti  Ti1459  1  0.31050015  0.26198192  0.34718845  1.0
  Ti  Ti1460  1  0.31050015  0.42864859  0.34718845  1.0
  Ti  Ti1461  1  0.31050015  0.59531526  0.34718845  1.0
  Ti  Ti1462  1  0.31050015  0.76198192  0.34718845  1.0
  Ti  Ti1463  1  0.31050015  0.92864859  0.34718845  1.0
  Ti  Ti1464  1  0.39383348  0.09531526  0.34718845  1.0
  Ti  Ti1465  1  0.39383348  0.26198192  0.34718845  1.0
  Ti  Ti1466  1  0.39383348  0.42864859  0.34718845  1.0
  Ti  Ti1467  1  0.39383348  0.59531526  0.34718845  1.0
  Ti  Ti1468  1  0.39383348  0.76198192  0.34718845  1.0
  Ti  Ti1469  1  0.39383348  0.92864859  0.34718845  1.0
  Ti  Ti1470  1  0.47716682  0.09531526  0.34718845  1.0
  Ti  Ti1471  1  0.47716682  0.26198192  0.34718845  1.0
  Ti  Ti1472  1  0.47716682  0.42864859  0.34718845  1.0
  Ti  Ti1473  1  0.47716682  0.59531526  0.34718845  1.0
  Ti  Ti1474  1  0.47716682  0.76198192  0.34718845  1.0
  Ti  Ti1475  1  0.47716682  0.92864859  0.34718845  1.0
  Ti  Ti1476  1  0.56050015  0.09531526  0.34718845  1.0
  Ti  Ti1477  1  0.56050015  0.26198192  0.34718845  1.0
  Ti  Ti1478  1  0.56050015  0.42864859  0.34718845  1.0
  Ti  Ti1479  1  0.56050015  0.59531526  0.34718845  1.0
  Ti  Ti1480  1  0.56050015  0.76198192  0.34718845  1.0
  Ti  Ti1481  1  0.56050015  0.92864859  0.34718845  1.0
  Ti  Ti1482  1  0.64383348  0.09531526  0.34718845  1.0
  Ti  Ti1483  1  0.64383348  0.26198192  0.34718845  1.0
  Ti  Ti1484  1  0.64383348  0.42864859  0.34718845  1.0
  Ti  Ti1485  1  0.64383348  0.59531526  0.34718845  1.0
  Ti  Ti1486  1  0.64383348  0.76198192  0.34718845  1.0
  Ti  Ti1487  1  0.64383348  0.92864859  0.34718845  1.0
  Ti  Ti1488  1  0.72716682  0.09531526  0.34718845  1.0
  Ti  Ti1489  1  0.72716682  0.26198192  0.34718845  1.0
  Ti  Ti1490  1  0.72716682  0.42864859  0.34718845  1.0
  Ti  Ti1491  1  0.72716682  0.59531526  0.34718845  1.0
  Ti  Ti1492  1  0.72716682  0.76198192  0.34718845  1.0
  Ti  Ti1493  1  0.72716682  0.92864859  0.34718845  1.0
  Ti  Ti1494  1  0.81050015  0.09531526  0.34718845  1.0
  Ti  Ti1495  1  0.81050015  0.26198192  0.34718845  1.0
  Ti  Ti1496  1  0.81050015  0.42864859  0.34718845  1.0
  Ti  Ti1497  1  0.81050015  0.59531526  0.34718845  1.0
  Ti  Ti1498  1  0.81050015  0.76198192  0.34718845  1.0
  Ti  Ti1499  1  0.81050015  0.92864859  0.34718845  1.0
  Ti  Ti1500  1  0.89383348  0.09531526  0.34718845  1.0
  Ti  Ti1501  1  0.89383348  0.26198192  0.34718845  1.0
  Ti  Ti1502  1  0.89383348  0.42864859  0.34718845  1.0
  Ti  Ti1503  1  0.89383348  0.59531526  0.34718845  1.0
  Ti  Ti1504  1  0.89383348  0.76198192  0.34718845  1.0
  Ti  Ti1505  1  0.89383348  0.92864859  0.34718845  1.0
  Ti  Ti1506  1  0.97716682  0.09531526  0.34718845  1.0
  Ti  Ti1507  1  0.97716682  0.26198192  0.34718845  1.0
  Ti  Ti1508  1  0.97716682  0.42864859  0.34718845  1.0
  Ti  Ti1509  1  0.97716682  0.59531526  0.34718845  1.0
  Ti  Ti1510  1  0.97716682  0.76198192  0.34718845  1.0
  Ti  Ti1511  1  0.97716682  0.92864859  0.34718845  1.0
  Ti  Ti1512  1  0.00097634  0.10722002  0.27575988  1.0
  Ti  Ti1513  1  0.00097634  0.27388669  0.27575988  1.0
  Ti  Ti1514  1  0.00097634  0.44055335  0.27575988  1.0
  Ti  Ti1515  1  0.00097634  0.60722002  0.27575988  1.0
  Ti  Ti1516  1  0.00097634  0.77388669  0.27575988  1.0
  Ti  Ti1517  1  0.00097634  0.94055335  0.27575988  1.0
  Ti  Ti1518  1  0.08430967  0.10722002  0.27575988  1.0
  Ti  Ti1519  1  0.08430967  0.27388669  0.27575988  1.0
  Ti  Ti1520  1  0.08430967  0.44055335  0.27575988  1.0
  Ti  Ti1521  1  0.08430967  0.60722002  0.27575988  1.0
  Ti  Ti1522  1  0.08430967  0.77388669  0.27575988  1.0
  Ti  Ti1523  1  0.08430967  0.94055335  0.27575988  1.0
  Ti  Ti1524  1  0.16764301  0.10722002  0.27575988  1.0
  Ti  Ti1525  1  0.16764301  0.27388669  0.27575988  1.0
  Ti  Ti1526  1  0.16764301  0.44055335  0.27575988  1.0
  Ti  Ti1527  1  0.16764301  0.60722002  0.27575988  1.0
  Ti  Ti1528  1  0.16764301  0.77388669  0.27575988  1.0
  Ti  Ti1529  1  0.16764301  0.94055335  0.27575988  1.0
  Ti  Ti1530  1  0.25097634  0.10722002  0.27575988  1.0
  Ti  Ti1531  1  0.25097634  0.27388669  0.27575988  1.0
  Ti  Ti1532  1  0.25097634  0.44055335  0.27575988  1.0
  Ti  Ti1533  1  0.25097634  0.60722002  0.27575988  1.0
  Ti  Ti1534  1  0.25097634  0.77388669  0.27575988  1.0
  Ti  Ti1535  1  0.25097634  0.94055335  0.27575988  1.0
  Ti  Ti1536  1  0.33430967  0.10722002  0.27575988  1.0
  Ti  Ti1537  1  0.33430967  0.27388669  0.27575988  1.0
  Ti  Ti1538  1  0.33430967  0.44055335  0.27575988  1.0
  Ti  Ti1539  1  0.33430967  0.60722002  0.27575988  1.0
  Ti  Ti1540  1  0.33430967  0.77388669  0.27575988  1.0
  Ti  Ti1541  1  0.33430967  0.94055335  0.27575988  1.0
  Ti  Ti1542  1  0.41764301  0.10722002  0.27575988  1.0
  Ti  Ti1543  1  0.41764301  0.27388669  0.27575988  1.0
  Ti  Ti1544  1  0.41764301  0.44055335  0.27575988  1.0
  Ti  Ti1545  1  0.41764301  0.60722002  0.27575988  1.0
  Ti  Ti1546  1  0.41764301  0.77388669  0.27575988  1.0
  Ti  Ti1547  1  0.41764301  0.94055335  0.27575988  1.0
  Ti  Ti1548  1  0.50097634  0.10722002  0.27575988  1.0
  Ti  Ti1549  1  0.50097634  0.27388669  0.27575988  1.0
  Ti  Ti1550  1  0.50097634  0.44055335  0.27575988  1.0
  Ti  Ti1551  1  0.50097634  0.60722002  0.27575988  1.0
  Ti  Ti1552  1  0.50097634  0.77388669  0.27575988  1.0
  Ti  Ti1553  1  0.50097634  0.94055335  0.27575988  1.0
  Ti  Ti1554  1  0.58430967  0.10722002  0.27575988  1.0
  Ti  Ti1555  1  0.58430967  0.27388669  0.27575988  1.0
  Ti  Ti1556  1  0.58430967  0.44055335  0.27575988  1.0
  Ti  Ti1557  1  0.58430967  0.60722002  0.27575988  1.0
  Ti  Ti1558  1  0.58430967  0.77388669  0.27575988  1.0
  Ti  Ti1559  1  0.58430967  0.94055335  0.27575988  1.0
  Ti  Ti1560  1  0.66764301  0.10722002  0.27575988  1.0
  Ti  Ti1561  1  0.66764301  0.27388669  0.27575988  1.0
  Ti  Ti1562  1  0.66764301  0.44055335  0.27575988  1.0
  Ti  Ti1563  1  0.66764301  0.60722002  0.27575988  1.0
  Ti  Ti1564  1  0.66764301  0.77388669  0.27575988  1.0
  Ti  Ti1565  1  0.66764301  0.94055335  0.27575988  1.0
  Ti  Ti1566  1  0.75097634  0.10722002  0.27575988  1.0
  Ti  Ti1567  1  0.75097634  0.27388669  0.27575988  1.0
  Ti  Ti1568  1  0.75097634  0.44055335  0.27575988  1.0
  Ti  Ti1569  1  0.75097634  0.60722002  0.27575988  1.0
  Ti  Ti1570  1  0.75097634  0.77388669  0.27575988  1.0
  Ti  Ti1571  1  0.75097634  0.94055335  0.27575988  1.0
  Ti  Ti1572  1  0.83430967  0.10722002  0.27575988  1.0
  Ti  Ti1573  1  0.83430967  0.27388669  0.27575988  1.0
  Ti  Ti1574  1  0.83430967  0.44055335  0.27575988  1.0
  Ti  Ti1575  1  0.83430967  0.60722002  0.27575988  1.0
  Ti  Ti1576  1  0.83430967  0.77388669  0.27575988  1.0
  Ti  Ti1577  1  0.83430967  0.94055335  0.27575988  1.0
  Ti  Ti1578  1  0.91764301  0.10722002  0.27575988  1.0
  Ti  Ti1579  1  0.91764301  0.27388669  0.27575988  1.0
  Ti  Ti1580  1  0.91764301  0.44055335  0.27575988  1.0
  Ti  Ti1581  1  0.91764301  0.60722002  0.27575988  1.0
  Ti  Ti1582  1  0.91764301  0.77388669  0.27575988  1.0
  Ti  Ti1583  1  0.91764301  0.94055335  0.27575988  1.0
  Ti  Ti1584  1  0.00716951  0.09123493  0.38564414  1.0
  Ti  Ti1585  1  0.00716951  0.25790160  0.38564414  1.0
  Ti  Ti1586  1  0.00716951  0.42456827  0.38564414  1.0
  Ti  Ti1587  1  0.00716951  0.59123493  0.38564414  1.0
  Ti  Ti1588  1  0.00716951  0.75790160  0.38564414  1.0
  Ti  Ti1589  1  0.00716951  0.92456827  0.38564414  1.0
  Ti  Ti1590  1  0.09050284  0.09123493  0.38564414  1.0
  Ti  Ti1591  1  0.09050284  0.25790160  0.38564414  1.0
  Ti  Ti1592  1  0.09050284  0.42456827  0.38564414  1.0
  Ti  Ti1593  1  0.09050284  0.59123493  0.38564414  1.0
  Ti  Ti1594  1  0.09050284  0.75790160  0.38564414  1.0
  Ti  Ti1595  1  0.09050284  0.92456827  0.38564414  1.0
  Ti  Ti1596  1  0.17383617  0.09123493  0.38564414  1.0
  Ti  Ti1597  1  0.17383617  0.25790160  0.38564414  1.0
  Ti  Ti1598  1  0.17383617  0.42456827  0.38564414  1.0
  Ti  Ti1599  1  0.17383617  0.59123493  0.38564414  1.0
  Ti  Ti1600  1  0.17383617  0.75790160  0.38564414  1.0
  Ti  Ti1601  1  0.17383617  0.92456827  0.38564414  1.0
  Ti  Ti1602  1  0.25716951  0.09123493  0.38564414  1.0
  Ti  Ti1603  1  0.25716951  0.25790160  0.38564414  1.0
  Ti  Ti1604  1  0.25716951  0.42456827  0.38564414  1.0
  Ti  Ti1605  1  0.25716951  0.59123493  0.38564414  1.0
  Ti  Ti1606  1  0.25716951  0.75790160  0.38564414  1.0
  Ti  Ti1607  1  0.25716951  0.92456827  0.38564414  1.0
  Ti  Ti1608  1  0.34050284  0.09123493  0.38564414  1.0
  Ti  Ti1609  1  0.34050284  0.25790160  0.38564414  1.0
  Ti  Ti1610  1  0.34050284  0.42456827  0.38564414  1.0
  Ti  Ti1611  1  0.34050284  0.59123493  0.38564414  1.0
  Ti  Ti1612  1  0.34050284  0.75790160  0.38564414  1.0
  Ti  Ti1613  1  0.34050284  0.92456827  0.38564414  1.0
  Ti  Ti1614  1  0.42383617  0.09123493  0.38564414  1.0
  Ti  Ti1615  1  0.42383617  0.25790160  0.38564414  1.0
  Ti  Ti1616  1  0.42383617  0.42456827  0.38564414  1.0
  Ti  Ti1617  1  0.42383617  0.59123493  0.38564414  1.0
  Ti  Ti1618  1  0.42383617  0.75790160  0.38564414  1.0
  Ti  Ti1619  1  0.42383617  0.92456827  0.38564414  1.0
  Ti  Ti1620  1  0.50716951  0.09123493  0.38564414  1.0
  Ti  Ti1621  1  0.50716951  0.25790160  0.38564414  1.0
  Ti  Ti1622  1  0.50716951  0.42456827  0.38564414  1.0
  Ti  Ti1623  1  0.50716951  0.59123493  0.38564414  1.0
  Ti  Ti1624  1  0.50716951  0.75790160  0.38564414  1.0
  Ti  Ti1625  1  0.50716951  0.92456827  0.38564414  1.0
  Ti  Ti1626  1  0.59050284  0.09123493  0.38564414  1.0
  Ti  Ti1627  1  0.59050284  0.25790160  0.38564414  1.0
  Ti  Ti1628  1  0.59050284  0.42456827  0.38564414  1.0
  Ti  Ti1629  1  0.59050284  0.59123493  0.38564414  1.0
  Ti  Ti1630  1  0.59050284  0.75790160  0.38564414  1.0
  Ti  Ti1631  1  0.59050284  0.92456827  0.38564414  1.0
  Ti  Ti1632  1  0.67383617  0.09123493  0.38564414  1.0
  Ti  Ti1633  1  0.67383617  0.25790160  0.38564414  1.0
  Ti  Ti1634  1  0.67383617  0.42456827  0.38564414  1.0
  Ti  Ti1635  1  0.67383617  0.59123493  0.38564414  1.0
  Ti  Ti1636  1  0.67383617  0.75790160  0.38564414  1.0
  Ti  Ti1637  1  0.67383617  0.92456827  0.38564414  1.0
  Ti  Ti1638  1  0.75716951  0.09123493  0.38564414  1.0
  Ti  Ti1639  1  0.75716951  0.25790160  0.38564414  1.0
  Ti  Ti1640  1  0.75716951  0.42456827  0.38564414  1.0
  Ti  Ti1641  1  0.75716951  0.59123493  0.38564414  1.0
  Ti  Ti1642  1  0.75716951  0.75790160  0.38564414  1.0
  Ti  Ti1643  1  0.75716951  0.92456827  0.38564414  1.0
  Ti  Ti1644  1  0.84050284  0.09123493  0.38564414  1.0
  Ti  Ti1645  1  0.84050284  0.25790160  0.38564414  1.0
  Ti  Ti1646  1  0.84050284  0.42456827  0.38564414  1.0
  Ti  Ti1647  1  0.84050284  0.59123493  0.38564414  1.0
  Ti  Ti1648  1  0.84050284  0.75790160  0.38564414  1.0
  Ti  Ti1649  1  0.84050284  0.92456827  0.38564414  1.0
  Ti  Ti1650  1  0.92383617  0.09123493  0.38564414  1.0
  Ti  Ti1651  1  0.92383617  0.25790160  0.38564414  1.0
  Ti  Ti1652  1  0.92383617  0.42456827  0.38564414  1.0
  Ti  Ti1653  1  0.92383617  0.59123493  0.38564414  1.0
  Ti  Ti1654  1  0.92383617  0.75790160  0.38564414  1.0
  Ti  Ti1655  1  0.92383617  0.92456827  0.38564414  1.0
  Ti  Ti1656  1  0.06669332  0.07933017  0.45707271  1.0
  Ti  Ti1657  1  0.06669332  0.24599684  0.45707271  1.0
  Ti  Ti1658  1  0.06669332  0.41266351  0.45707271  1.0
  Ti  Ti1659  1  0.06669332  0.57933017  0.45707271  1.0
  Ti  Ti1660  1  0.06669332  0.74599684  0.45707271  1.0
  Ti  Ti1661  1  0.06669332  0.91266351  0.45707271  1.0
  Ti  Ti1662  1  0.15002665  0.07933017  0.45707271  1.0
  Ti  Ti1663  1  0.15002665  0.24599684  0.45707271  1.0
  Ti  Ti1664  1  0.15002665  0.41266351  0.45707271  1.0
  Ti  Ti1665  1  0.15002665  0.57933017  0.45707271  1.0
  Ti  Ti1666  1  0.15002665  0.74599684  0.45707271  1.0
  Ti  Ti1667  1  0.15002665  0.91266351  0.45707271  1.0
  Ti  Ti1668  1  0.23335998  0.07933017  0.45707271  1.0
  Ti  Ti1669  1  0.23335998  0.24599684  0.45707271  1.0
  Ti  Ti1670  1  0.23335998  0.41266351  0.45707271  1.0
  Ti  Ti1671  1  0.23335998  0.57933017  0.45707271  1.0
  Ti  Ti1672  1  0.23335998  0.74599684  0.45707271  1.0
  Ti  Ti1673  1  0.23335998  0.91266351  0.45707271  1.0
  Ti  Ti1674  1  0.31669332  0.07933017  0.45707271  1.0
  Ti  Ti1675  1  0.31669332  0.24599684  0.45707271  1.0
  Ti  Ti1676  1  0.31669332  0.41266351  0.45707271  1.0
  Ti  Ti1677  1  0.31669332  0.57933017  0.45707271  1.0
  Ti  Ti1678  1  0.31669332  0.74599684  0.45707271  1.0
  Ti  Ti1679  1  0.31669332  0.91266351  0.45707271  1.0
  Ti  Ti1680  1  0.40002665  0.07933017  0.45707271  1.0
  Ti  Ti1681  1  0.40002665  0.24599684  0.45707271  1.0
  Ti  Ti1682  1  0.40002665  0.41266351  0.45707271  1.0
  Ti  Ti1683  1  0.40002665  0.57933017  0.45707271  1.0
  Ti  Ti1684  1  0.40002665  0.74599684  0.45707271  1.0
  Ti  Ti1685  1  0.40002665  0.91266351  0.45707271  1.0
  Ti  Ti1686  1  0.48335998  0.07933017  0.45707271  1.0
  Ti  Ti1687  1  0.48335998  0.24599684  0.45707271  1.0
  Ti  Ti1688  1  0.48335998  0.41266351  0.45707271  1.0
  Ti  Ti1689  1  0.48335998  0.57933017  0.45707271  1.0
  Ti  Ti1690  1  0.48335998  0.74599684  0.45707271  1.0
  Ti  Ti1691  1  0.48335998  0.91266351  0.45707271  1.0
  Ti  Ti1692  1  0.56669332  0.07933017  0.45707271  1.0
  Ti  Ti1693  1  0.56669332  0.24599684  0.45707271  1.0
  Ti  Ti1694  1  0.56669332  0.41266351  0.45707271  1.0
  Ti  Ti1695  1  0.56669332  0.57933017  0.45707271  1.0
  Ti  Ti1696  1  0.56669332  0.74599684  0.45707271  1.0
  Ti  Ti1697  1  0.56669332  0.91266351  0.45707271  1.0
  Ti  Ti1698  1  0.65002665  0.07933017  0.45707271  1.0
  Ti  Ti1699  1  0.65002665  0.24599684  0.45707271  1.0
  Ti  Ti1700  1  0.65002665  0.41266351  0.45707271  1.0
  Ti  Ti1701  1  0.65002665  0.57933017  0.45707271  1.0
  Ti  Ti1702  1  0.65002665  0.74599684  0.45707271  1.0
  Ti  Ti1703  1  0.65002665  0.91266351  0.45707271  1.0
  Ti  Ti1704  1  0.73335998  0.07933017  0.45707271  1.0
  Ti  Ti1705  1  0.73335998  0.24599684  0.45707271  1.0
  Ti  Ti1706  1  0.73335998  0.41266351  0.45707271  1.0
  Ti  Ti1707  1  0.73335998  0.57933017  0.45707271  1.0
  Ti  Ti1708  1  0.73335998  0.74599684  0.45707271  1.0
  Ti  Ti1709  1  0.73335998  0.91266351  0.45707271  1.0
  Ti  Ti1710  1  0.81669332  0.07933017  0.45707271  1.0
  Ti  Ti1711  1  0.81669332  0.24599684  0.45707271  1.0
  Ti  Ti1712  1  0.81669332  0.41266351  0.45707271  1.0
  Ti  Ti1713  1  0.81669332  0.57933017  0.45707271  1.0
  Ti  Ti1714  1  0.81669332  0.74599684  0.45707271  1.0
  Ti  Ti1715  1  0.81669332  0.91266351  0.45707271  1.0
  Ti  Ti1716  1  0.90002665  0.07933017  0.45707271  1.0
  Ti  Ti1717  1  0.90002665  0.24599684  0.45707271  1.0
  Ti  Ti1718  1  0.90002665  0.41266351  0.45707271  1.0
  Ti  Ti1719  1  0.90002665  0.57933017  0.45707271  1.0
  Ti  Ti1720  1  0.90002665  0.74599684  0.45707271  1.0
  Ti  Ti1721  1  0.90002665  0.91266351  0.45707271  1.0
  Ti  Ti1722  1  0.98335998  0.07933017  0.45707271  1.0
  Ti  Ti1723  1  0.98335998  0.24599684  0.45707271  1.0
  Ti  Ti1724  1  0.98335998  0.41266351  0.45707271  1.0
  Ti  Ti1725  1  0.98335998  0.57933017  0.45707271  1.0
  Ti  Ti1726  1  0.98335998  0.74599684  0.45707271  1.0
  Ti  Ti1727  1  0.98335998  0.91266351  0.45707271  1.0
  Ti  Ti1728  1  0.01241915  0.16518246  0.36409908  1.0
  Ti  Ti1729  1  0.01241915  0.33184913  0.36409908  1.0
  Ti  Ti1730  1  0.01241915  0.49851580  0.36409908  1.0
  Ti  Ti1731  1  0.01241915  0.66518246  0.36409908  1.0
  Ti  Ti1732  1  0.01241915  0.83184913  0.36409908  1.0
  Ti  Ti1733  1  0.01241915  0.99851580  0.36409908  1.0
  Ti  Ti1734  1  0.09575248  0.16518246  0.36409908  1.0
  Ti  Ti1735  1  0.09575248  0.33184913  0.36409908  1.0
  Ti  Ti1736  1  0.09575248  0.49851580  0.36409908  1.0
  Ti  Ti1737  1  0.09575248  0.66518246  0.36409908  1.0
  Ti  Ti1738  1  0.09575248  0.83184913  0.36409908  1.0
  Ti  Ti1739  1  0.09575248  0.99851580  0.36409908  1.0
  Ti  Ti1740  1  0.17908581  0.16518246  0.36409908  1.0
  Ti  Ti1741  1  0.17908581  0.33184913  0.36409908  1.0
  Ti  Ti1742  1  0.17908581  0.49851580  0.36409908  1.0
  Ti  Ti1743  1  0.17908581  0.66518246  0.36409908  1.0
  Ti  Ti1744  1  0.17908581  0.83184913  0.36409908  1.0
  Ti  Ti1745  1  0.17908581  0.99851580  0.36409908  1.0
  Ti  Ti1746  1  0.26241915  0.16518246  0.36409908  1.0
  Ti  Ti1747  1  0.26241915  0.33184913  0.36409908  1.0
  Ti  Ti1748  1  0.26241915  0.49851580  0.36409908  1.0
  Ti  Ti1749  1  0.26241915  0.66518246  0.36409908  1.0
  Ti  Ti1750  1  0.26241915  0.83184913  0.36409908  1.0
  Ti  Ti1751  1  0.26241915  0.99851580  0.36409908  1.0
  Ti  Ti1752  1  0.34575248  0.16518246  0.36409908  1.0
  Ti  Ti1753  1  0.34575248  0.33184913  0.36409908  1.0
  Ti  Ti1754  1  0.34575248  0.49851580  0.36409908  1.0
  Ti  Ti1755  1  0.34575248  0.66518246  0.36409908  1.0
  Ti  Ti1756  1  0.34575248  0.83184913  0.36409908  1.0
  Ti  Ti1757  1  0.34575248  0.99851580  0.36409908  1.0
  Ti  Ti1758  1  0.42908581  0.16518246  0.36409908  1.0
  Ti  Ti1759  1  0.42908581  0.33184913  0.36409908  1.0
  Ti  Ti1760  1  0.42908581  0.49851580  0.36409908  1.0
  Ti  Ti1761  1  0.42908581  0.66518246  0.36409908  1.0
  Ti  Ti1762  1  0.42908581  0.83184913  0.36409908  1.0
  Ti  Ti1763  1  0.42908581  0.99851580  0.36409908  1.0
  Ti  Ti1764  1  0.51241915  0.16518246  0.36409908  1.0
  Ti  Ti1765  1  0.51241915  0.33184913  0.36409908  1.0
  Ti  Ti1766  1  0.51241915  0.49851580  0.36409908  1.0
  Ti  Ti1767  1  0.51241915  0.66518246  0.36409908  1.0
  Ti  Ti1768  1  0.51241915  0.83184913  0.36409908  1.0
  Ti  Ti1769  1  0.51241915  0.99851580  0.36409908  1.0
  Ti  Ti1770  1  0.59575248  0.16518246  0.36409908  1.0
  Ti  Ti1771  1  0.59575248  0.33184913  0.36409908  1.0
  Ti  Ti1772  1  0.59575248  0.49851580  0.36409908  1.0
  Ti  Ti1773  1  0.59575248  0.66518246  0.36409908  1.0
  Ti  Ti1774  1  0.59575248  0.83184913  0.36409908  1.0
  Ti  Ti1775  1  0.59575248  0.99851580  0.36409908  1.0
  Ti  Ti1776  1  0.67908581  0.16518246  0.36409908  1.0
  Ti  Ti1777  1  0.67908581  0.33184913  0.36409908  1.0
  Ti  Ti1778  1  0.67908581  0.49851580  0.36409908  1.0
  Ti  Ti1779  1  0.67908581  0.66518246  0.36409908  1.0
  Ti  Ti1780  1  0.67908581  0.83184913  0.36409908  1.0
  Ti  Ti1781  1  0.67908581  0.99851580  0.36409908  1.0
  Ti  Ti1782  1  0.76241915  0.16518246  0.36409908  1.0
  Ti  Ti1783  1  0.76241915  0.33184913  0.36409908  1.0
  Ti  Ti1784  1  0.76241915  0.49851580  0.36409908  1.0
  Ti  Ti1785  1  0.76241915  0.66518246  0.36409908  1.0
  Ti  Ti1786  1  0.76241915  0.83184913  0.36409908  1.0
  Ti  Ti1787  1  0.76241915  0.99851580  0.36409908  1.0
  Ti  Ti1788  1  0.84575248  0.16518246  0.36409908  1.0
  Ti  Ti1789  1  0.84575248  0.33184913  0.36409908  1.0
  Ti  Ti1790  1  0.84575248  0.49851580  0.36409908  1.0
  Ti  Ti1791  1  0.84575248  0.66518246  0.36409908  1.0
  Ti  Ti1792  1  0.84575248  0.83184913  0.36409908  1.0
  Ti  Ti1793  1  0.84575248  0.99851580  0.36409908  1.0
  Ti  Ti1794  1  0.92908581  0.16518246  0.36409908  1.0
  Ti  Ti1795  1  0.92908581  0.33184913  0.36409908  1.0
  Ti  Ti1796  1  0.92908581  0.49851580  0.36409908  1.0
  Ti  Ti1797  1  0.92908581  0.66518246  0.36409908  1.0
  Ti  Ti1798  1  0.92908581  0.83184913  0.36409908  1.0
  Ti  Ti1799  1  0.92908581  0.99851580  0.36409908  1.0
  Ti  Ti1800  1  0.07194296  0.15327770  0.43552765  1.0
  Ti  Ti1801  1  0.07194296  0.31994437  0.43552765  1.0
  Ti  Ti1802  1  0.07194296  0.48661103  0.43552765  1.0
  Ti  Ti1803  1  0.07194296  0.65327770  0.43552765  1.0
  Ti  Ti1804  1  0.07194296  0.81994437  0.43552765  1.0
  Ti  Ti1805  1  0.07194296  0.98661103  0.43552765  1.0
  Ti  Ti1806  1  0.15527629  0.15327770  0.43552765  1.0
  Ti  Ti1807  1  0.15527629  0.31994437  0.43552765  1.0
  Ti  Ti1808  1  0.15527629  0.48661103  0.43552765  1.0
  Ti  Ti1809  1  0.15527629  0.65327770  0.43552765  1.0
  Ti  Ti1810  1  0.15527629  0.81994437  0.43552765  1.0
  Ti  Ti1811  1  0.15527629  0.98661103  0.43552765  1.0
  Ti  Ti1812  1  0.23860962  0.15327770  0.43552765  1.0
  Ti  Ti1813  1  0.23860962  0.31994437  0.43552765  1.0
  Ti  Ti1814  1  0.23860962  0.48661103  0.43552765  1.0
  Ti  Ti1815  1  0.23860962  0.65327770  0.43552765  1.0
  Ti  Ti1816  1  0.23860962  0.81994437  0.43552765  1.0
  Ti  Ti1817  1  0.23860962  0.98661103  0.43552765  1.0
  Ti  Ti1818  1  0.32194296  0.15327770  0.43552765  1.0
  Ti  Ti1819  1  0.32194296  0.31994437  0.43552765  1.0
  Ti  Ti1820  1  0.32194296  0.48661103  0.43552765  1.0
  Ti  Ti1821  1  0.32194296  0.65327770  0.43552765  1.0
  Ti  Ti1822  1  0.32194296  0.81994437  0.43552765  1.0
  Ti  Ti1823  1  0.32194296  0.98661103  0.43552765  1.0
  Ti  Ti1824  1  0.40527629  0.15327770  0.43552765  1.0
  Ti  Ti1825  1  0.40527629  0.31994437  0.43552765  1.0
  Ti  Ti1826  1  0.40527629  0.48661103  0.43552765  1.0
  Ti  Ti1827  1  0.40527629  0.65327770  0.43552765  1.0
  Ti  Ti1828  1  0.40527629  0.81994437  0.43552765  1.0
  Ti  Ti1829  1  0.40527629  0.98661103  0.43552765  1.0
  Ti  Ti1830  1  0.48860962  0.15327770  0.43552765  1.0
  Ti  Ti1831  1  0.48860962  0.31994437  0.43552765  1.0
  Ti  Ti1832  1  0.48860962  0.48661103  0.43552765  1.0
  Ti  Ti1833  1  0.48860962  0.65327770  0.43552765  1.0
  Ti  Ti1834  1  0.48860962  0.81994437  0.43552765  1.0
  Ti  Ti1835  1  0.48860962  0.98661103  0.43552765  1.0
  Ti  Ti1836  1  0.57194296  0.15327770  0.43552765  1.0
  Ti  Ti1837  1  0.57194296  0.31994437  0.43552765  1.0
  Ti  Ti1838  1  0.57194296  0.48661103  0.43552765  1.0
  Ti  Ti1839  1  0.57194296  0.65327770  0.43552765  1.0
  Ti  Ti1840  1  0.57194296  0.81994437  0.43552765  1.0
  Ti  Ti1841  1  0.57194296  0.98661103  0.43552765  1.0
  Ti  Ti1842  1  0.65527629  0.15327770  0.43552765  1.0
  Ti  Ti1843  1  0.65527629  0.31994437  0.43552765  1.0
  Ti  Ti1844  1  0.65527629  0.48661103  0.43552765  1.0
  Ti  Ti1845  1  0.65527629  0.65327770  0.43552765  1.0
  Ti  Ti1846  1  0.65527629  0.81994437  0.43552765  1.0
  Ti  Ti1847  1  0.65527629  0.98661103  0.43552765  1.0
  Ti  Ti1848  1  0.73860962  0.15327770  0.43552765  1.0
  Ti  Ti1849  1  0.73860962  0.31994437  0.43552765  1.0
  Ti  Ti1850  1  0.73860962  0.48661103  0.43552765  1.0
  Ti  Ti1851  1  0.73860962  0.65327770  0.43552765  1.0
  Ti  Ti1852  1  0.73860962  0.81994437  0.43552765  1.0
  Ti  Ti1853  1  0.73860962  0.98661103  0.43552765  1.0
  Ti  Ti1854  1  0.82194296  0.15327770  0.43552765  1.0
  Ti  Ti1855  1  0.82194296  0.31994437  0.43552765  1.0
  Ti  Ti1856  1  0.82194296  0.48661103  0.43552765  1.0
  Ti  Ti1857  1  0.82194296  0.65327770  0.43552765  1.0
  Ti  Ti1858  1  0.82194296  0.81994437  0.43552765  1.0
  Ti  Ti1859  1  0.82194296  0.98661103  0.43552765  1.0
  Ti  Ti1860  1  0.90527629  0.15327770  0.43552765  1.0
  Ti  Ti1861  1  0.90527629  0.31994437  0.43552765  1.0
  Ti  Ti1862  1  0.90527629  0.48661103  0.43552765  1.0
  Ti  Ti1863  1  0.90527629  0.65327770  0.43552765  1.0
  Ti  Ti1864  1  0.90527629  0.81994437  0.43552765  1.0
  Ti  Ti1865  1  0.90527629  0.98661103  0.43552765  1.0
  Ti  Ti1866  1  0.98860962  0.15327770  0.43552765  1.0
  Ti  Ti1867  1  0.98860962  0.31994437  0.43552765  1.0
  Ti  Ti1868  1  0.98860962  0.48661103  0.43552765  1.0
  Ti  Ti1869  1  0.98860962  0.65327770  0.43552765  1.0
  Ti  Ti1870  1  0.98860962  0.81994437  0.43552765  1.0
  Ti  Ti1871  1  0.98860962  0.98661103  0.43552765  1.0
  Ti  Ti1872  1  0.01161136  0.04498906  0.37449730  1.0
  Ti  Ti1873  1  0.01161136  0.21165573  0.37449730  1.0
  Ti  Ti1874  1  0.01161136  0.37832239  0.37449730  1.0
  Ti  Ti1875  1  0.01161136  0.54498906  0.37449730  1.0
  Ti  Ti1876  1  0.01161136  0.71165573  0.37449730  1.0
  Ti  Ti1877  1  0.01161136  0.87832239  0.37449730  1.0
  Ti  Ti1878  1  0.09494469  0.04498906  0.37449730  1.0
  Ti  Ti1879  1  0.09494469  0.21165573  0.37449730  1.0
  Ti  Ti1880  1  0.09494469  0.37832239  0.37449730  1.0
  Ti  Ti1881  1  0.09494469  0.54498906  0.37449730  1.0
  Ti  Ti1882  1  0.09494469  0.71165573  0.37449730  1.0
  Ti  Ti1883  1  0.09494469  0.87832239  0.37449730  1.0
  Ti  Ti1884  1  0.17827803  0.04498906  0.37449730  1.0
  Ti  Ti1885  1  0.17827803  0.21165573  0.37449730  1.0
  Ti  Ti1886  1  0.17827803  0.37832239  0.37449730  1.0
  Ti  Ti1887  1  0.17827803  0.54498906  0.37449730  1.0
  Ti  Ti1888  1  0.17827803  0.71165573  0.37449730  1.0
  Ti  Ti1889  1  0.17827803  0.87832239  0.37449730  1.0
  Ti  Ti1890  1  0.26161136  0.04498906  0.37449730  1.0
  Ti  Ti1891  1  0.26161136  0.21165573  0.37449730  1.0
  Ti  Ti1892  1  0.26161136  0.37832239  0.37449730  1.0
  Ti  Ti1893  1  0.26161136  0.54498906  0.37449730  1.0
  Ti  Ti1894  1  0.26161136  0.71165573  0.37449730  1.0
  Ti  Ti1895  1  0.26161136  0.87832239  0.37449730  1.0
  Ti  Ti1896  1  0.34494469  0.04498906  0.37449730  1.0
  Ti  Ti1897  1  0.34494469  0.21165573  0.37449730  1.0
  Ti  Ti1898  1  0.34494469  0.37832239  0.37449730  1.0
  Ti  Ti1899  1  0.34494469  0.54498906  0.37449730  1.0
  Ti  Ti1900  1  0.34494469  0.71165573  0.37449730  1.0
  Ti  Ti1901  1  0.34494469  0.87832239  0.37449730  1.0
  Ti  Ti1902  1  0.42827803  0.04498906  0.37449730  1.0
  Ti  Ti1903  1  0.42827803  0.21165573  0.37449730  1.0
  Ti  Ti1904  1  0.42827803  0.37832239  0.37449730  1.0
  Ti  Ti1905  1  0.42827803  0.54498906  0.37449730  1.0
  Ti  Ti1906  1  0.42827803  0.71165573  0.37449730  1.0
  Ti  Ti1907  1  0.42827803  0.87832239  0.37449730  1.0
  Ti  Ti1908  1  0.51161136  0.04498906  0.37449730  1.0
  Ti  Ti1909  1  0.51161136  0.21165573  0.37449730  1.0
  Ti  Ti1910  1  0.51161136  0.37832239  0.37449730  1.0
  Ti  Ti1911  1  0.51161136  0.54498906  0.37449730  1.0
  Ti  Ti1912  1  0.51161136  0.71165573  0.37449730  1.0
  Ti  Ti1913  1  0.51161136  0.87832239  0.37449730  1.0
  Ti  Ti1914  1  0.59494469  0.04498906  0.37449730  1.0
  Ti  Ti1915  1  0.59494469  0.21165573  0.37449730  1.0
  Ti  Ti1916  1  0.59494469  0.37832239  0.37449730  1.0
  Ti  Ti1917  1  0.59494469  0.54498906  0.37449730  1.0
  Ti  Ti1918  1  0.59494469  0.71165573  0.37449730  1.0
  Ti  Ti1919  1  0.59494469  0.87832239  0.37449730  1.0
  Ti  Ti1920  1  0.67827803  0.04498906  0.37449730  1.0
  Ti  Ti1921  1  0.67827803  0.21165573  0.37449730  1.0
  Ti  Ti1922  1  0.67827803  0.37832239  0.37449730  1.0
  Ti  Ti1923  1  0.67827803  0.54498906  0.37449730  1.0
  Ti  Ti1924  1  0.67827803  0.71165573  0.37449730  1.0
  Ti  Ti1925  1  0.67827803  0.87832239  0.37449730  1.0
  Ti  Ti1926  1  0.76161136  0.04498906  0.37449730  1.0
  Ti  Ti1927  1  0.76161136  0.21165573  0.37449730  1.0
  Ti  Ti1928  1  0.76161136  0.37832239  0.37449730  1.0
  Ti  Ti1929  1  0.76161136  0.54498906  0.37449730  1.0
  Ti  Ti1930  1  0.76161136  0.71165573  0.37449730  1.0
  Ti  Ti1931  1  0.76161136  0.87832239  0.37449730  1.0
  Ti  Ti1932  1  0.84494469  0.04498906  0.37449730  1.0
  Ti  Ti1933  1  0.84494469  0.21165573  0.37449730  1.0
  Ti  Ti1934  1  0.84494469  0.37832239  0.37449730  1.0
  Ti  Ti1935  1  0.84494469  0.54498906  0.37449730  1.0
  Ti  Ti1936  1  0.84494469  0.71165573  0.37449730  1.0
  Ti  Ti1937  1  0.84494469  0.87832239  0.37449730  1.0
  Ti  Ti1938  1  0.92827803  0.04498906  0.37449730  1.0
  Ti  Ti1939  1  0.92827803  0.21165573  0.37449730  1.0
  Ti  Ti1940  1  0.92827803  0.37832239  0.37449730  1.0
  Ti  Ti1941  1  0.92827803  0.54498906  0.37449730  1.0
  Ti  Ti1942  1  0.92827803  0.71165573  0.37449730  1.0
  Ti  Ti1943  1  0.92827803  0.87832239  0.37449730  1.0
  Ti  Ti1944  1  0.07113517  0.03308430  0.44592587  1.0
  Ti  Ti1945  1  0.07113517  0.19975096  0.44592587  1.0
  Ti  Ti1946  1  0.07113517  0.36641763  0.44592587  1.0
  Ti  Ti1947  1  0.07113517  0.53308430  0.44592587  1.0
  Ti  Ti1948  1  0.07113517  0.69975096  0.44592587  1.0
  Ti  Ti1949  1  0.07113517  0.86641763  0.44592587  1.0
  Ti  Ti1950  1  0.15446850  0.03308430  0.44592587  1.0
  Ti  Ti1951  1  0.15446850  0.19975096  0.44592587  1.0
  Ti  Ti1952  1  0.15446850  0.36641763  0.44592587  1.0
  Ti  Ti1953  1  0.15446850  0.53308430  0.44592587  1.0
  Ti  Ti1954  1  0.15446850  0.69975096  0.44592587  1.0
  Ti  Ti1955  1  0.15446850  0.86641763  0.44592587  1.0
  Ti  Ti1956  1  0.23780184  0.03308430  0.44592587  1.0
  Ti  Ti1957  1  0.23780184  0.19975096  0.44592587  1.0
  Ti  Ti1958  1  0.23780184  0.36641763  0.44592587  1.0
  Ti  Ti1959  1  0.23780184  0.53308430  0.44592587  1.0
  Ti  Ti1960  1  0.23780184  0.69975096  0.44592587  1.0
  Ti  Ti1961  1  0.23780184  0.86641763  0.44592587  1.0
  Ti  Ti1962  1  0.32113517  0.03308430  0.44592587  1.0
  Ti  Ti1963  1  0.32113517  0.19975096  0.44592587  1.0
  Ti  Ti1964  1  0.32113517  0.36641763  0.44592587  1.0
  Ti  Ti1965  1  0.32113517  0.53308430  0.44592587  1.0
  Ti  Ti1966  1  0.32113517  0.69975096  0.44592587  1.0
  Ti  Ti1967  1  0.32113517  0.86641763  0.44592587  1.0
  Ti  Ti1968  1  0.40446850  0.03308430  0.44592587  1.0
  Ti  Ti1969  1  0.40446850  0.19975096  0.44592587  1.0
  Ti  Ti1970  1  0.40446850  0.36641763  0.44592587  1.0
  Ti  Ti1971  1  0.40446850  0.53308430  0.44592587  1.0
  Ti  Ti1972  1  0.40446850  0.69975096  0.44592587  1.0
  Ti  Ti1973  1  0.40446850  0.86641763  0.44592587  1.0
  Ti  Ti1974  1  0.48780184  0.03308430  0.44592587  1.0
  Ti  Ti1975  1  0.48780184  0.19975096  0.44592587  1.0
  Ti  Ti1976  1  0.48780184  0.36641763  0.44592587  1.0
  Ti  Ti1977  1  0.48780184  0.53308430  0.44592587  1.0
  Ti  Ti1978  1  0.48780184  0.69975096  0.44592587  1.0
  Ti  Ti1979  1  0.48780184  0.86641763  0.44592587  1.0
  Ti  Ti1980  1  0.57113517  0.03308430  0.44592587  1.0
  Ti  Ti1981  1  0.57113517  0.19975096  0.44592587  1.0
  Ti  Ti1982  1  0.57113517  0.36641763  0.44592587  1.0
  Ti  Ti1983  1  0.57113517  0.53308430  0.44592587  1.0
  Ti  Ti1984  1  0.57113517  0.69975096  0.44592587  1.0
  Ti  Ti1985  1  0.57113517  0.86641763  0.44592587  1.0
  Ti  Ti1986  1  0.65446850  0.03308430  0.44592587  1.0
  Ti  Ti1987  1  0.65446850  0.19975096  0.44592587  1.0
  Ti  Ti1988  1  0.65446850  0.36641763  0.44592587  1.0
  Ti  Ti1989  1  0.65446850  0.53308430  0.44592587  1.0
  Ti  Ti1990  1  0.65446850  0.69975096  0.44592587  1.0
  Ti  Ti1991  1  0.65446850  0.86641763  0.44592587  1.0
  Ti  Ti1992  1  0.73780184  0.03308430  0.44592587  1.0
  Ti  Ti1993  1  0.73780184  0.19975096  0.44592587  1.0
  Ti  Ti1994  1  0.73780184  0.36641763  0.44592587  1.0
  Ti  Ti1995  1  0.73780184  0.53308430  0.44592587  1.0
  Ti  Ti1996  1  0.73780184  0.69975096  0.44592587  1.0
  Ti  Ti1997  1  0.73780184  0.86641763  0.44592587  1.0
  Ti  Ti1998  1  0.82113517  0.03308430  0.44592587  1.0
  Ti  Ti1999  1  0.82113517  0.19975096  0.44592587  1.0
  Ti  Ti2000  1  0.82113517  0.36641763  0.44592587  1.0
  Ti  Ti2001  1  0.82113517  0.53308430  0.44592587  1.0
  Ti  Ti2002  1  0.82113517  0.69975096  0.44592587  1.0
  Ti  Ti2003  1  0.82113517  0.86641763  0.44592587  1.0
  Ti  Ti2004  1  0.90446850  0.03308430  0.44592587  1.0
  Ti  Ti2005  1  0.90446850  0.19975096  0.44592587  1.0
  Ti  Ti2006  1  0.90446850  0.36641763  0.44592587  1.0
  Ti  Ti2007  1  0.90446850  0.53308430  0.44592587  1.0
  Ti  Ti2008  1  0.90446850  0.69975096  0.44592587  1.0
  Ti  Ti2009  1  0.90446850  0.86641763  0.44592587  1.0
  Ti  Ti2010  1  0.98780184  0.03308430  0.44592587  1.0
  Ti  Ti2011  1  0.98780184  0.19975096  0.44592587  1.0
  Ti  Ti2012  1  0.98780184  0.36641763  0.44592587  1.0
  Ti  Ti2013  1  0.98780184  0.53308430  0.44592587  1.0
  Ti  Ti2014  1  0.98780184  0.69975096  0.44592587  1.0
  Ti  Ti2015  1  0.98780184  0.86641763  0.44592587  1.0
  Ti  Ti2016  1  0.05842087  0.14535636  0.35850010  1.0
  Ti  Ti2017  1  0.05842087  0.31202302  0.35850010  1.0
  Ti  Ti2018  1  0.05842087  0.47868969  0.35850010  1.0
  Ti  Ti2019  1  0.05842087  0.64535636  0.35850010  1.0
  Ti  Ti2020  1  0.05842087  0.81202302  0.35850010  1.0
  Ti  Ti2021  1  0.05842087  0.97868969  0.35850010  1.0
  Ti  Ti2022  1  0.14175421  0.14535636  0.35850010  1.0
  Ti  Ti2023  1  0.14175421  0.31202302  0.35850010  1.0
  Ti  Ti2024  1  0.14175421  0.47868969  0.35850010  1.0
  Ti  Ti2025  1  0.14175421  0.64535636  0.35850010  1.0
  Ti  Ti2026  1  0.14175421  0.81202302  0.35850010  1.0
  Ti  Ti2027  1  0.14175421  0.97868969  0.35850010  1.0
  Ti  Ti2028  1  0.22508754  0.14535636  0.35850010  1.0
  Ti  Ti2029  1  0.22508754  0.31202302  0.35850010  1.0
  Ti  Ti2030  1  0.22508754  0.47868969  0.35850010  1.0
  Ti  Ti2031  1  0.22508754  0.64535636  0.35850010  1.0
  Ti  Ti2032  1  0.22508754  0.81202302  0.35850010  1.0
  Ti  Ti2033  1  0.22508754  0.97868969  0.35850010  1.0
  Ti  Ti2034  1  0.30842087  0.14535636  0.35850010  1.0
  Ti  Ti2035  1  0.30842087  0.31202302  0.35850010  1.0
  Ti  Ti2036  1  0.30842087  0.47868969  0.35850010  1.0
  Ti  Ti2037  1  0.30842087  0.64535636  0.35850010  1.0
  Ti  Ti2038  1  0.30842087  0.81202302  0.35850010  1.0
  Ti  Ti2039  1  0.30842087  0.97868969  0.35850010  1.0
  Ti  Ti2040  1  0.39175421  0.14535636  0.35850010  1.0
  Ti  Ti2041  1  0.39175421  0.31202302  0.35850010  1.0
  Ti  Ti2042  1  0.39175421  0.47868969  0.35850010  1.0
  Ti  Ti2043  1  0.39175421  0.64535636  0.35850010  1.0
  Ti  Ti2044  1  0.39175421  0.81202302  0.35850010  1.0
  Ti  Ti2045  1  0.39175421  0.97868969  0.35850010  1.0
  Ti  Ti2046  1  0.47508754  0.14535636  0.35850010  1.0
  Ti  Ti2047  1  0.47508754  0.31202302  0.35850010  1.0
  Ti  Ti2048  1  0.47508754  0.47868969  0.35850010  1.0
  Ti  Ti2049  1  0.47508754  0.64535636  0.35850010  1.0
  Ti  Ti2050  1  0.47508754  0.81202302  0.35850010  1.0
  Ti  Ti2051  1  0.47508754  0.97868969  0.35850010  1.0
  Ti  Ti2052  1  0.55842087  0.14535636  0.35850010  1.0
  Ti  Ti2053  1  0.55842087  0.31202302  0.35850010  1.0
  Ti  Ti2054  1  0.55842087  0.47868969  0.35850010  1.0
  Ti  Ti2055  1  0.55842087  0.64535636  0.35850010  1.0
  Ti  Ti2056  1  0.55842087  0.81202302  0.35850010  1.0
  Ti  Ti2057  1  0.55842087  0.97868969  0.35850010  1.0
  Ti  Ti2058  1  0.64175421  0.14535636  0.35850010  1.0
  Ti  Ti2059  1  0.64175421  0.31202302  0.35850010  1.0
  Ti  Ti2060  1  0.64175421  0.47868969  0.35850010  1.0
  Ti  Ti2061  1  0.64175421  0.64535636  0.35850010  1.0
  Ti  Ti2062  1  0.64175421  0.81202302  0.35850010  1.0
  Ti  Ti2063  1  0.64175421  0.97868969  0.35850010  1.0
  Ti  Ti2064  1  0.72508754  0.14535636  0.35850010  1.0
  Ti  Ti2065  1  0.72508754  0.31202302  0.35850010  1.0
  Ti  Ti2066  1  0.72508754  0.47868969  0.35850010  1.0
  Ti  Ti2067  1  0.72508754  0.64535636  0.35850010  1.0
  Ti  Ti2068  1  0.72508754  0.81202302  0.35850010  1.0
  Ti  Ti2069  1  0.72508754  0.97868969  0.35850010  1.0
  Ti  Ti2070  1  0.80842087  0.14535636  0.35850010  1.0
  Ti  Ti2071  1  0.80842087  0.31202302  0.35850010  1.0
  Ti  Ti2072  1  0.80842087  0.47868969  0.35850010  1.0
  Ti  Ti2073  1  0.80842087  0.64535636  0.35850010  1.0
  Ti  Ti2074  1  0.80842087  0.81202302  0.35850010  1.0
  Ti  Ti2075  1  0.80842087  0.97868969  0.35850010  1.0
  Ti  Ti2076  1  0.89175421  0.14535636  0.35850010  1.0
  Ti  Ti2077  1  0.89175421  0.31202302  0.35850010  1.0
  Ti  Ti2078  1  0.89175421  0.47868969  0.35850010  1.0
  Ti  Ti2079  1  0.89175421  0.64535636  0.35850010  1.0
  Ti  Ti2080  1  0.89175421  0.81202302  0.35850010  1.0
  Ti  Ti2081  1  0.89175421  0.97868969  0.35850010  1.0
  Ti  Ti2082  1  0.97508754  0.14535636  0.35850010  1.0
  Ti  Ti2083  1  0.97508754  0.31202302  0.35850010  1.0
  Ti  Ti2084  1  0.97508754  0.47868969  0.35850010  1.0
  Ti  Ti2085  1  0.97508754  0.64535636  0.35850010  1.0
  Ti  Ti2086  1  0.97508754  0.81202302  0.35850010  1.0
  Ti  Ti2087  1  0.97508754  0.97868969  0.35850010  1.0
  Ti  Ti2088  1  0.03461135  0.13345160  0.42992867  1.0
  Ti  Ti2089  1  0.03461135  0.30011826  0.42992867  1.0
  Ti  Ti2090  1  0.03461135  0.46678493  0.42992867  1.0
  Ti  Ti2091  1  0.03461135  0.63345160  0.42992867  1.0
  Ti  Ti2092  1  0.03461135  0.80011826  0.42992867  1.0
  Ti  Ti2093  1  0.03461135  0.96678493  0.42992867  1.0
  Ti  Ti2094  1  0.11794468  0.13345160  0.42992867  1.0
  Ti  Ti2095  1  0.11794468  0.30011826  0.42992867  1.0
  Ti  Ti2096  1  0.11794468  0.46678493  0.42992867  1.0
  Ti  Ti2097  1  0.11794468  0.63345160  0.42992867  1.0
  Ti  Ti2098  1  0.11794468  0.80011826  0.42992867  1.0
  Ti  Ti2099  1  0.11794468  0.96678493  0.42992867  1.0
  Ti  Ti2100  1  0.20127802  0.13345160  0.42992867  1.0
  Ti  Ti2101  1  0.20127802  0.30011826  0.42992867  1.0
  Ti  Ti2102  1  0.20127802  0.46678493  0.42992867  1.0
  Ti  Ti2103  1  0.20127802  0.63345160  0.42992867  1.0
  Ti  Ti2104  1  0.20127802  0.80011826  0.42992867  1.0
  Ti  Ti2105  1  0.20127802  0.96678493  0.42992867  1.0
  Ti  Ti2106  1  0.28461135  0.13345160  0.42992867  1.0
  Ti  Ti2107  1  0.28461135  0.30011826  0.42992867  1.0
  Ti  Ti2108  1  0.28461135  0.46678493  0.42992867  1.0
  Ti  Ti2109  1  0.28461135  0.63345160  0.42992867  1.0
  Ti  Ti2110  1  0.28461135  0.80011826  0.42992867  1.0
  Ti  Ti2111  1  0.28461135  0.96678493  0.42992867  1.0
  Ti  Ti2112  1  0.36794468  0.13345160  0.42992867  1.0
  Ti  Ti2113  1  0.36794468  0.30011826  0.42992867  1.0
  Ti  Ti2114  1  0.36794468  0.46678493  0.42992867  1.0
  Ti  Ti2115  1  0.36794468  0.63345160  0.42992867  1.0
  Ti  Ti2116  1  0.36794468  0.80011826  0.42992867  1.0
  Ti  Ti2117  1  0.36794468  0.96678493  0.42992867  1.0
  Ti  Ti2118  1  0.45127802  0.13345160  0.42992867  1.0
  Ti  Ti2119  1  0.45127802  0.30011826  0.42992867  1.0
  Ti  Ti2120  1  0.45127802  0.46678493  0.42992867  1.0
  Ti  Ti2121  1  0.45127802  0.63345160  0.42992867  1.0
  Ti  Ti2122  1  0.45127802  0.80011826  0.42992867  1.0
  Ti  Ti2123  1  0.45127802  0.96678493  0.42992867  1.0
  Ti  Ti2124  1  0.53461135  0.13345160  0.42992867  1.0
  Ti  Ti2125  1  0.53461135  0.30011826  0.42992867  1.0
  Ti  Ti2126  1  0.53461135  0.46678493  0.42992867  1.0
  Ti  Ti2127  1  0.53461135  0.63345160  0.42992867  1.0
  Ti  Ti2128  1  0.53461135  0.80011826  0.42992867  1.0
  Ti  Ti2129  1  0.53461135  0.96678493  0.42992867  1.0
  Ti  Ti2130  1  0.61794468  0.13345160  0.42992867  1.0
  Ti  Ti2131  1  0.61794468  0.30011826  0.42992867  1.0
  Ti  Ti2132  1  0.61794468  0.46678493  0.42992867  1.0
  Ti  Ti2133  1  0.61794468  0.63345160  0.42992867  1.0
  Ti  Ti2134  1  0.61794468  0.80011826  0.42992867  1.0
  Ti  Ti2135  1  0.61794468  0.96678493  0.42992867  1.0
  Ti  Ti2136  1  0.70127802  0.13345160  0.42992867  1.0
  Ti  Ti2137  1  0.70127802  0.30011826  0.42992867  1.0
  Ti  Ti2138  1  0.70127802  0.46678493  0.42992867  1.0
  Ti  Ti2139  1  0.70127802  0.63345160  0.42992867  1.0
  Ti  Ti2140  1  0.70127802  0.80011826  0.42992867  1.0
  Ti  Ti2141  1  0.70127802  0.96678493  0.42992867  1.0
  Ti  Ti2142  1  0.78461135  0.13345160  0.42992867  1.0
  Ti  Ti2143  1  0.78461135  0.30011826  0.42992867  1.0
  Ti  Ti2144  1  0.78461135  0.46678493  0.42992867  1.0
  Ti  Ti2145  1  0.78461135  0.63345160  0.42992867  1.0
  Ti  Ti2146  1  0.78461135  0.80011826  0.42992867  1.0
  Ti  Ti2147  1  0.78461135  0.96678493  0.42992867  1.0
  Ti  Ti2148  1  0.86794468  0.13345160  0.42992867  1.0
  Ti  Ti2149  1  0.86794468  0.30011826  0.42992867  1.0
  Ti  Ti2150  1  0.86794468  0.46678493  0.42992867  1.0
  Ti  Ti2151  1  0.86794468  0.63345160  0.42992867  1.0
  Ti  Ti2152  1  0.86794468  0.80011826  0.42992867  1.0
  Ti  Ti2153  1  0.86794468  0.96678493  0.42992867  1.0
  Ti  Ti2154  1  0.95127802  0.13345160  0.42992867  1.0
  Ti  Ti2155  1  0.95127802  0.30011826  0.42992867  1.0
  Ti  Ti2156  1  0.95127802  0.46678493  0.42992867  1.0
  Ti  Ti2157  1  0.95127802  0.63345160  0.42992867  1.0
  Ti  Ti2158  1  0.95127802  0.80011826  0.42992867  1.0
  Ti  Ti2159  1  0.95127802  0.96678493  0.42992867  1.0
  Ti  Ti2160  1  0.04683541  0.11483165  0.39137195  1.0
  Ti  Ti2161  1  0.04683541  0.28149832  0.39137195  1.0
  Ti  Ti2162  1  0.04683541  0.44816498  0.39137195  1.0
  Ti  Ti2163  1  0.04683541  0.61483165  0.39137195  1.0
  Ti  Ti2164  1  0.04683541  0.78149832  0.39137195  1.0
  Ti  Ti2165  1  0.04683541  0.94816498  0.39137195  1.0
  Ti  Ti2166  1  0.13016874  0.11483165  0.39137195  1.0
  Ti  Ti2167  1  0.13016874  0.28149832  0.39137195  1.0
  Ti  Ti2168  1  0.13016874  0.44816498  0.39137195  1.0
  Ti  Ti2169  1  0.13016874  0.61483165  0.39137195  1.0
  Ti  Ti2170  1  0.13016874  0.78149832  0.39137195  1.0
  Ti  Ti2171  1  0.13016874  0.94816498  0.39137195  1.0
  Ti  Ti2172  1  0.21350207  0.11483165  0.39137195  1.0
  Ti  Ti2173  1  0.21350207  0.28149832  0.39137195  1.0
  Ti  Ti2174  1  0.21350207  0.44816498  0.39137195  1.0
  Ti  Ti2175  1  0.21350207  0.61483165  0.39137195  1.0
  Ti  Ti2176  1  0.21350207  0.78149832  0.39137195  1.0
  Ti  Ti2177  1  0.21350207  0.94816498  0.39137195  1.0
  Ti  Ti2178  1  0.29683541  0.11483165  0.39137195  1.0
  Ti  Ti2179  1  0.29683541  0.28149832  0.39137195  1.0
  Ti  Ti2180  1  0.29683541  0.44816498  0.39137195  1.0
  Ti  Ti2181  1  0.29683541  0.61483165  0.39137195  1.0
  Ti  Ti2182  1  0.29683541  0.78149832  0.39137195  1.0
  Ti  Ti2183  1  0.29683541  0.94816498  0.39137195  1.0
  Ti  Ti2184  1  0.38016874  0.11483165  0.39137195  1.0
  Ti  Ti2185  1  0.38016874  0.28149832  0.39137195  1.0
  Ti  Ti2186  1  0.38016874  0.44816498  0.39137195  1.0
  Ti  Ti2187  1  0.38016874  0.61483165  0.39137195  1.0
  Ti  Ti2188  1  0.38016874  0.78149832  0.39137195  1.0
  Ti  Ti2189  1  0.38016874  0.94816498  0.39137195  1.0
  Ti  Ti2190  1  0.46350207  0.11483165  0.39137195  1.0
  Ti  Ti2191  1  0.46350207  0.28149832  0.39137195  1.0
  Ti  Ti2192  1  0.46350207  0.44816498  0.39137195  1.0
  Ti  Ti2193  1  0.46350207  0.61483165  0.39137195  1.0
  Ti  Ti2194  1  0.46350207  0.78149832  0.39137195  1.0
  Ti  Ti2195  1  0.46350207  0.94816498  0.39137195  1.0
  Ti  Ti2196  1  0.54683541  0.11483165  0.39137195  1.0
  Ti  Ti2197  1  0.54683541  0.28149832  0.39137195  1.0
  Ti  Ti2198  1  0.54683541  0.44816498  0.39137195  1.0
  Ti  Ti2199  1  0.54683541  0.61483165  0.39137195  1.0
  Ti  Ti2200  1  0.54683541  0.78149832  0.39137195  1.0
  Ti  Ti2201  1  0.54683541  0.94816498  0.39137195  1.0
  Ti  Ti2202  1  0.63016874  0.11483165  0.39137195  1.0
  Ti  Ti2203  1  0.63016874  0.28149832  0.39137195  1.0
  Ti  Ti2204  1  0.63016874  0.44816498  0.39137195  1.0
  Ti  Ti2205  1  0.63016874  0.61483165  0.39137195  1.0
  Ti  Ti2206  1  0.63016874  0.78149832  0.39137195  1.0
  Ti  Ti2207  1  0.63016874  0.94816498  0.39137195  1.0
  Ti  Ti2208  1  0.71350207  0.11483165  0.39137195  1.0
  Ti  Ti2209  1  0.71350207  0.28149832  0.39137195  1.0
  Ti  Ti2210  1  0.71350207  0.44816498  0.39137195  1.0
  Ti  Ti2211  1  0.71350207  0.61483165  0.39137195  1.0
  Ti  Ti2212  1  0.71350207  0.78149832  0.39137195  1.0
  Ti  Ti2213  1  0.71350207  0.94816498  0.39137195  1.0
  Ti  Ti2214  1  0.79683541  0.11483165  0.39137195  1.0
  Ti  Ti2215  1  0.79683541  0.28149832  0.39137195  1.0
  Ti  Ti2216  1  0.79683541  0.44816498  0.39137195  1.0
  Ti  Ti2217  1  0.79683541  0.61483165  0.39137195  1.0
  Ti  Ti2218  1  0.79683541  0.78149832  0.39137195  1.0
  Ti  Ti2219  1  0.79683541  0.94816498  0.39137195  1.0
  Ti  Ti2220  1  0.88016874  0.11483165  0.39137195  1.0
  Ti  Ti2221  1  0.88016874  0.28149832  0.39137195  1.0
  Ti  Ti2222  1  0.88016874  0.44816498  0.39137195  1.0
  Ti  Ti2223  1  0.88016874  0.61483165  0.39137195  1.0
  Ti  Ti2224  1  0.88016874  0.78149832  0.39137195  1.0
  Ti  Ti2225  1  0.88016874  0.94816498  0.39137195  1.0
  Ti  Ti2226  1  0.96350207  0.11483165  0.39137195  1.0
  Ti  Ti2227  1  0.96350207  0.28149832  0.39137195  1.0
  Ti  Ti2228  1  0.96350207  0.44816498  0.39137195  1.0
  Ti  Ti2229  1  0.96350207  0.61483165  0.39137195  1.0
  Ti  Ti2230  1  0.96350207  0.78149832  0.39137195  1.0
  Ti  Ti2231  1  0.96350207  0.94816498  0.39137195  1.0
  Ti  Ti2232  1  0.02302588  0.10292689  0.46280052  1.0
  Ti  Ti2233  1  0.02302588  0.26959356  0.46280052  1.0
  Ti  Ti2234  1  0.02302588  0.43626022  0.46280052  1.0
  Ti  Ti2235  1  0.02302588  0.60292689  0.46280052  1.0
  Ti  Ti2236  1  0.02302588  0.76959356  0.46280052  1.0
  Ti  Ti2237  1  0.02302588  0.93626022  0.46280052  1.0
  Ti  Ti2238  1  0.10635922  0.10292689  0.46280052  1.0
  Ti  Ti2239  1  0.10635922  0.26959356  0.46280052  1.0
  Ti  Ti2240  1  0.10635922  0.43626022  0.46280052  1.0
  Ti  Ti2241  1  0.10635922  0.60292689  0.46280052  1.0
  Ti  Ti2242  1  0.10635922  0.76959356  0.46280052  1.0
  Ti  Ti2243  1  0.10635922  0.93626022  0.46280052  1.0
  Ti  Ti2244  1  0.18969255  0.10292689  0.46280052  1.0
  Ti  Ti2245  1  0.18969255  0.26959356  0.46280052  1.0
  Ti  Ti2246  1  0.18969255  0.43626022  0.46280052  1.0
  Ti  Ti2247  1  0.18969255  0.60292689  0.46280052  1.0
  Ti  Ti2248  1  0.18969255  0.76959356  0.46280052  1.0
  Ti  Ti2249  1  0.18969255  0.93626022  0.46280052  1.0
  Ti  Ti2250  1  0.27302588  0.10292689  0.46280052  1.0
  Ti  Ti2251  1  0.27302588  0.26959356  0.46280052  1.0
  Ti  Ti2252  1  0.27302588  0.43626022  0.46280052  1.0
  Ti  Ti2253  1  0.27302588  0.60292689  0.46280052  1.0
  Ti  Ti2254  1  0.27302588  0.76959356  0.46280052  1.0
  Ti  Ti2255  1  0.27302588  0.93626022  0.46280052  1.0
  Ti  Ti2256  1  0.35635922  0.10292689  0.46280052  1.0
  Ti  Ti2257  1  0.35635922  0.26959356  0.46280052  1.0
  Ti  Ti2258  1  0.35635922  0.43626022  0.46280052  1.0
  Ti  Ti2259  1  0.35635922  0.60292689  0.46280052  1.0
  Ti  Ti2260  1  0.35635922  0.76959356  0.46280052  1.0
  Ti  Ti2261  1  0.35635922  0.93626022  0.46280052  1.0
  Ti  Ti2262  1  0.43969255  0.10292689  0.46280052  1.0
  Ti  Ti2263  1  0.43969255  0.26959356  0.46280052  1.0
  Ti  Ti2264  1  0.43969255  0.43626022  0.46280052  1.0
  Ti  Ti2265  1  0.43969255  0.60292689  0.46280052  1.0
  Ti  Ti2266  1  0.43969255  0.76959356  0.46280052  1.0
  Ti  Ti2267  1  0.43969255  0.93626022  0.46280052  1.0
  Ti  Ti2268  1  0.52302588  0.10292689  0.46280052  1.0
  Ti  Ti2269  1  0.52302588  0.26959356  0.46280052  1.0
  Ti  Ti2270  1  0.52302588  0.43626022  0.46280052  1.0
  Ti  Ti2271  1  0.52302588  0.60292689  0.46280052  1.0
  Ti  Ti2272  1  0.52302588  0.76959356  0.46280052  1.0
  Ti  Ti2273  1  0.52302588  0.93626022  0.46280052  1.0
  Ti  Ti2274  1  0.60635922  0.10292689  0.46280052  1.0
  Ti  Ti2275  1  0.60635922  0.26959356  0.46280052  1.0
  Ti  Ti2276  1  0.60635922  0.43626022  0.46280052  1.0
  Ti  Ti2277  1  0.60635922  0.60292689  0.46280052  1.0
  Ti  Ti2278  1  0.60635922  0.76959356  0.46280052  1.0
  Ti  Ti2279  1  0.60635922  0.93626022  0.46280052  1.0
  Ti  Ti2280  1  0.68969255  0.10292689  0.46280052  1.0
  Ti  Ti2281  1  0.68969255  0.26959356  0.46280052  1.0
  Ti  Ti2282  1  0.68969255  0.43626022  0.46280052  1.0
  Ti  Ti2283  1  0.68969255  0.60292689  0.46280052  1.0
  Ti  Ti2284  1  0.68969255  0.76959356  0.46280052  1.0
  Ti  Ti2285  1  0.68969255  0.93626022  0.46280052  1.0
  Ti  Ti2286  1  0.77302588  0.10292689  0.46280052  1.0
  Ti  Ti2287  1  0.77302588  0.26959356  0.46280052  1.0
  Ti  Ti2288  1  0.77302588  0.43626022  0.46280052  1.0
  Ti  Ti2289  1  0.77302588  0.60292689  0.46280052  1.0
  Ti  Ti2290  1  0.77302588  0.76959356  0.46280052  1.0
  Ti  Ti2291  1  0.77302588  0.93626022  0.46280052  1.0
  Ti  Ti2292  1  0.85635922  0.10292689  0.46280052  1.0
  Ti  Ti2293  1  0.85635922  0.26959356  0.46280052  1.0
  Ti  Ti2294  1  0.85635922  0.43626022  0.46280052  1.0
  Ti  Ti2295  1  0.85635922  0.60292689  0.46280052  1.0
  Ti  Ti2296  1  0.85635922  0.76959356  0.46280052  1.0
  Ti  Ti2297  1  0.85635922  0.93626022  0.46280052  1.0
  Ti  Ti2298  1  0.93969255  0.10292689  0.46280052  1.0
  Ti  Ti2299  1  0.93969255  0.26959356  0.46280052  1.0
  Ti  Ti2300  1  0.93969255  0.43626022  0.46280052  1.0
  Ti  Ti2301  1  0.93969255  0.60292689  0.46280052  1.0
  Ti  Ti2302  1  0.93969255  0.76959356  0.46280052  1.0
  Ti  Ti2303  1  0.93969255  0.93626022  0.46280052  1.0
  Ti  Ti2304  1  0.04892694  0.06481387  0.38011553  1.0
  Ti  Ti2305  1  0.04892694  0.23148053  0.38011553  1.0
  Ti  Ti2306  1  0.04892694  0.39814720  0.38011553  1.0
  Ti  Ti2307  1  0.04892694  0.56481387  0.38011553  1.0
  Ti  Ti2308  1  0.04892694  0.73148053  0.38011553  1.0
  Ti  Ti2309  1  0.04892694  0.89814720  0.38011553  1.0
  Ti  Ti2310  1  0.13226028  0.06481387  0.38011553  1.0
  Ti  Ti2311  1  0.13226028  0.23148053  0.38011553  1.0
  Ti  Ti2312  1  0.13226028  0.39814720  0.38011553  1.0
  Ti  Ti2313  1  0.13226028  0.56481387  0.38011553  1.0
  Ti  Ti2314  1  0.13226028  0.73148053  0.38011553  1.0
  Ti  Ti2315  1  0.13226028  0.89814720  0.38011553  1.0
  Ti  Ti2316  1  0.21559361  0.06481387  0.38011553  1.0
  Ti  Ti2317  1  0.21559361  0.23148053  0.38011553  1.0
  Ti  Ti2318  1  0.21559361  0.39814720  0.38011553  1.0
  Ti  Ti2319  1  0.21559361  0.56481387  0.38011553  1.0
  Ti  Ti2320  1  0.21559361  0.73148053  0.38011553  1.0
  Ti  Ti2321  1  0.21559361  0.89814720  0.38011553  1.0
  Ti  Ti2322  1  0.29892694  0.06481387  0.38011553  1.0
  Ti  Ti2323  1  0.29892694  0.23148053  0.38011553  1.0
  Ti  Ti2324  1  0.29892694  0.39814720  0.38011553  1.0
  Ti  Ti2325  1  0.29892694  0.56481387  0.38011553  1.0
  Ti  Ti2326  1  0.29892694  0.73148053  0.38011553  1.0
  Ti  Ti2327  1  0.29892694  0.89814720  0.38011553  1.0
  Ti  Ti2328  1  0.38226028  0.06481387  0.38011553  1.0
  Ti  Ti2329  1  0.38226028  0.23148053  0.38011553  1.0
  Ti  Ti2330  1  0.38226028  0.39814720  0.38011553  1.0
  Ti  Ti2331  1  0.38226028  0.56481387  0.38011553  1.0
  Ti  Ti2332  1  0.38226028  0.73148053  0.38011553  1.0
  Ti  Ti2333  1  0.38226028  0.89814720  0.38011553  1.0
  Ti  Ti2334  1  0.46559361  0.06481387  0.38011553  1.0
  Ti  Ti2335  1  0.46559361  0.23148053  0.38011553  1.0
  Ti  Ti2336  1  0.46559361  0.39814720  0.38011553  1.0
  Ti  Ti2337  1  0.46559361  0.56481387  0.38011553  1.0
  Ti  Ti2338  1  0.46559361  0.73148053  0.38011553  1.0
  Ti  Ti2339  1  0.46559361  0.89814720  0.38011553  1.0
  Ti  Ti2340  1  0.54892694  0.06481387  0.38011553  1.0
  Ti  Ti2341  1  0.54892694  0.23148053  0.38011553  1.0
  Ti  Ti2342  1  0.54892694  0.39814720  0.38011553  1.0
  Ti  Ti2343  1  0.54892694  0.56481387  0.38011553  1.0
  Ti  Ti2344  1  0.54892694  0.73148053  0.38011553  1.0
  Ti  Ti2345  1  0.54892694  0.89814720  0.38011553  1.0
  Ti  Ti2346  1  0.63226028  0.06481387  0.38011553  1.0
  Ti  Ti2347  1  0.63226028  0.23148053  0.38011553  1.0
  Ti  Ti2348  1  0.63226028  0.39814720  0.38011553  1.0
  Ti  Ti2349  1  0.63226028  0.56481387  0.38011553  1.0
  Ti  Ti2350  1  0.63226028  0.73148053  0.38011553  1.0
  Ti  Ti2351  1  0.63226028  0.89814720  0.38011553  1.0
  Ti  Ti2352  1  0.71559361  0.06481387  0.38011553  1.0
  Ti  Ti2353  1  0.71559361  0.23148053  0.38011553  1.0
  Ti  Ti2354  1  0.71559361  0.39814720  0.38011553  1.0
  Ti  Ti2355  1  0.71559361  0.56481387  0.38011553  1.0
  Ti  Ti2356  1  0.71559361  0.73148053  0.38011553  1.0
  Ti  Ti2357  1  0.71559361  0.89814720  0.38011553  1.0
  Ti  Ti2358  1  0.79892694  0.06481387  0.38011553  1.0
  Ti  Ti2359  1  0.79892694  0.23148053  0.38011553  1.0
  Ti  Ti2360  1  0.79892694  0.39814720  0.38011553  1.0
  Ti  Ti2361  1  0.79892694  0.56481387  0.38011553  1.0
  Ti  Ti2362  1  0.79892694  0.73148053  0.38011553  1.0
  Ti  Ti2363  1  0.79892694  0.89814720  0.38011553  1.0
  Ti  Ti2364  1  0.88226028  0.06481387  0.38011553  1.0
  Ti  Ti2365  1  0.88226028  0.23148053  0.38011553  1.0
  Ti  Ti2366  1  0.88226028  0.39814720  0.38011553  1.0
  Ti  Ti2367  1  0.88226028  0.56481387  0.38011553  1.0
  Ti  Ti2368  1  0.88226028  0.73148053  0.38011553  1.0
  Ti  Ti2369  1  0.88226028  0.89814720  0.38011553  1.0
  Ti  Ti2370  1  0.96559361  0.06481387  0.38011553  1.0
  Ti  Ti2371  1  0.96559361  0.23148053  0.38011553  1.0
  Ti  Ti2372  1  0.96559361  0.39814720  0.38011553  1.0
  Ti  Ti2373  1  0.96559361  0.56481387  0.38011553  1.0
  Ti  Ti2374  1  0.96559361  0.73148053  0.38011553  1.0
  Ti  Ti2375  1  0.96559361  0.89814720  0.38011553  1.0
  Ti  Ti2376  1  0.02511742  0.05290911  0.45154410  1.0
  Ti  Ti2377  1  0.02511742  0.21957577  0.45154410  1.0
  Ti  Ti2378  1  0.02511742  0.38624244  0.45154410  1.0
  Ti  Ti2379  1  0.02511742  0.55290911  0.45154410  1.0
  Ti  Ti2380  1  0.02511742  0.71957577  0.45154410  1.0
  Ti  Ti2381  1  0.02511742  0.88624244  0.45154410  1.0
  Ti  Ti2382  1  0.10845075  0.05290911  0.45154410  1.0
  Ti  Ti2383  1  0.10845075  0.21957577  0.45154410  1.0
  Ti  Ti2384  1  0.10845075  0.38624244  0.45154410  1.0
  Ti  Ti2385  1  0.10845075  0.55290911  0.45154410  1.0
  Ti  Ti2386  1  0.10845075  0.71957577  0.45154410  1.0
  Ti  Ti2387  1  0.10845075  0.88624244  0.45154410  1.0
  Ti  Ti2388  1  0.19178408  0.05290911  0.45154410  1.0
  Ti  Ti2389  1  0.19178408  0.21957577  0.45154410  1.0
  Ti  Ti2390  1  0.19178408  0.38624244  0.45154410  1.0
  Ti  Ti2391  1  0.19178408  0.55290911  0.45154410  1.0
  Ti  Ti2392  1  0.19178408  0.71957577  0.45154410  1.0
  Ti  Ti2393  1  0.19178408  0.88624244  0.45154410  1.0
  Ti  Ti2394  1  0.27511742  0.05290911  0.45154410  1.0
  Ti  Ti2395  1  0.27511742  0.21957577  0.45154410  1.0
  Ti  Ti2396  1  0.27511742  0.38624244  0.45154410  1.0
  Ti  Ti2397  1  0.27511742  0.55290911  0.45154410  1.0
  Ti  Ti2398  1  0.27511742  0.71957577  0.45154410  1.0
  Ti  Ti2399  1  0.27511742  0.88624244  0.45154410  1.0
  Ti  Ti2400  1  0.35845075  0.05290911  0.45154410  1.0
  Ti  Ti2401  1  0.35845075  0.21957577  0.45154410  1.0
  Ti  Ti2402  1  0.35845075  0.38624244  0.45154410  1.0
  Ti  Ti2403  1  0.35845075  0.55290911  0.45154410  1.0
  Ti  Ti2404  1  0.35845075  0.71957577  0.45154410  1.0
  Ti  Ti2405  1  0.35845075  0.88624244  0.45154410  1.0
  Ti  Ti2406  1  0.44178408  0.05290911  0.45154410  1.0
  Ti  Ti2407  1  0.44178408  0.21957577  0.45154410  1.0
  Ti  Ti2408  1  0.44178408  0.38624244  0.45154410  1.0
  Ti  Ti2409  1  0.44178408  0.55290911  0.45154410  1.0
  Ti  Ti2410  1  0.44178408  0.71957577  0.45154410  1.0
  Ti  Ti2411  1  0.44178408  0.88624244  0.45154410  1.0
  Ti  Ti2412  1  0.52511742  0.05290911  0.45154410  1.0
  Ti  Ti2413  1  0.52511742  0.21957577  0.45154410  1.0
  Ti  Ti2414  1  0.52511742  0.38624244  0.45154410  1.0
  Ti  Ti2415  1  0.52511742  0.55290911  0.45154410  1.0
  Ti  Ti2416  1  0.52511742  0.71957577  0.45154410  1.0
  Ti  Ti2417  1  0.52511742  0.88624244  0.45154410  1.0
  Ti  Ti2418  1  0.60845075  0.05290911  0.45154410  1.0
  Ti  Ti2419  1  0.60845075  0.21957577  0.45154410  1.0
  Ti  Ti2420  1  0.60845075  0.38624244  0.45154410  1.0
  Ti  Ti2421  1  0.60845075  0.55290911  0.45154410  1.0
  Ti  Ti2422  1  0.60845075  0.71957577  0.45154410  1.0
  Ti  Ti2423  1  0.60845075  0.88624244  0.45154410  1.0
  Ti  Ti2424  1  0.69178408  0.05290911  0.45154410  1.0
  Ti  Ti2425  1  0.69178408  0.21957577  0.45154410  1.0
  Ti  Ti2426  1  0.69178408  0.38624244  0.45154410  1.0
  Ti  Ti2427  1  0.69178408  0.55290911  0.45154410  1.0
  Ti  Ti2428  1  0.69178408  0.71957577  0.45154410  1.0
  Ti  Ti2429  1  0.69178408  0.88624244  0.45154410  1.0
  Ti  Ti2430  1  0.77511742  0.05290911  0.45154410  1.0
  Ti  Ti2431  1  0.77511742  0.21957577  0.45154410  1.0
  Ti  Ti2432  1  0.77511742  0.38624244  0.45154410  1.0
  Ti  Ti2433  1  0.77511742  0.55290911  0.45154410  1.0
  Ti  Ti2434  1  0.77511742  0.71957577  0.45154410  1.0
  Ti  Ti2435  1  0.77511742  0.88624244  0.45154410  1.0
  Ti  Ti2436  1  0.85845075  0.05290911  0.45154410  1.0
  Ti  Ti2437  1  0.85845075  0.21957577  0.45154410  1.0
  Ti  Ti2438  1  0.85845075  0.38624244  0.45154410  1.0
  Ti  Ti2439  1  0.85845075  0.55290911  0.45154410  1.0
  Ti  Ti2440  1  0.85845075  0.71957577  0.45154410  1.0
  Ti  Ti2441  1  0.85845075  0.88624244  0.45154410  1.0
  Ti  Ti2442  1  0.94178408  0.05290911  0.45154410  1.0
  Ti  Ti2443  1  0.94178408  0.21957577  0.45154410  1.0
  Ti  Ti2444  1  0.94178408  0.38624244  0.45154410  1.0
  Ti  Ti2445  1  0.94178408  0.55290911  0.45154410  1.0
  Ti  Ti2446  1  0.94178408  0.71957577  0.45154410  1.0
  Ti  Ti2447  1  0.94178408  0.88624244  0.45154410  1.0
  Ti  Ti2448  1  0.05961925  0.00386975  0.47643229  1.0
  Ti  Ti2449  1  0.05961925  0.17053641  0.47643229  1.0
  Ti  Ti2450  1  0.05961925  0.33720308  0.47643229  1.0
  Ti  Ti2451  1  0.05961925  0.50386975  0.47643229  1.0
  Ti  Ti2452  1  0.05961925  0.67053641  0.47643229  1.0
  Ti  Ti2453  1  0.05961925  0.83720308  0.47643229  1.0
  Ti  Ti2454  1  0.14295258  0.00386975  0.47643229  1.0
  Ti  Ti2455  1  0.14295258  0.17053641  0.47643229  1.0
  Ti  Ti2456  1  0.14295258  0.33720308  0.47643229  1.0
  Ti  Ti2457  1  0.14295258  0.50386975  0.47643229  1.0
  Ti  Ti2458  1  0.14295258  0.67053641  0.47643229  1.0
  Ti  Ti2459  1  0.14295258  0.83720308  0.47643229  1.0
  Ti  Ti2460  1  0.22628592  0.00386975  0.47643229  1.0
  Ti  Ti2461  1  0.22628592  0.17053641  0.47643229  1.0
  Ti  Ti2462  1  0.22628592  0.33720308  0.47643229  1.0
  Ti  Ti2463  1  0.22628592  0.50386975  0.47643229  1.0
  Ti  Ti2464  1  0.22628592  0.67053641  0.47643229  1.0
  Ti  Ti2465  1  0.22628592  0.83720308  0.47643229  1.0
  Ti  Ti2466  1  0.30961925  0.00386975  0.47643229  1.0
  Ti  Ti2467  1  0.30961925  0.17053641  0.47643229  1.0
  Ti  Ti2468  1  0.30961925  0.33720308  0.47643229  1.0
  Ti  Ti2469  1  0.30961925  0.50386975  0.47643229  1.0
  Ti  Ti2470  1  0.30961925  0.67053641  0.47643229  1.0
  Ti  Ti2471  1  0.30961925  0.83720308  0.47643229  1.0
  Ti  Ti2472  1  0.39295258  0.00386975  0.47643229  1.0
  Ti  Ti2473  1  0.39295258  0.17053641  0.47643229  1.0
  Ti  Ti2474  1  0.39295258  0.33720308  0.47643229  1.0
  Ti  Ti2475  1  0.39295258  0.50386975  0.47643229  1.0
  Ti  Ti2476  1  0.39295258  0.67053641  0.47643229  1.0
  Ti  Ti2477  1  0.39295258  0.83720308  0.47643229  1.0
  Ti  Ti2478  1  0.47628592  0.00386975  0.47643229  1.0
  Ti  Ti2479  1  0.47628592  0.17053641  0.47643229  1.0
  Ti  Ti2480  1  0.47628592  0.33720308  0.47643229  1.0
  Ti  Ti2481  1  0.47628592  0.50386975  0.47643229  1.0
  Ti  Ti2482  1  0.47628592  0.67053641  0.47643229  1.0
  Ti  Ti2483  1  0.47628592  0.83720308  0.47643229  1.0
  Ti  Ti2484  1  0.55961925  0.00386975  0.47643229  1.0
  Ti  Ti2485  1  0.55961925  0.17053641  0.47643229  1.0
  Ti  Ti2486  1  0.55961925  0.33720308  0.47643229  1.0
  Ti  Ti2487  1  0.55961925  0.50386975  0.47643229  1.0
  Ti  Ti2488  1  0.55961925  0.67053641  0.47643229  1.0
  Ti  Ti2489  1  0.55961925  0.83720308  0.47643229  1.0
  Ti  Ti2490  1  0.64295258  0.00386975  0.47643229  1.0
  Ti  Ti2491  1  0.64295258  0.17053641  0.47643229  1.0
  Ti  Ti2492  1  0.64295258  0.33720308  0.47643229  1.0
  Ti  Ti2493  1  0.64295258  0.50386975  0.47643229  1.0
  Ti  Ti2494  1  0.64295258  0.67053641  0.47643229  1.0
  Ti  Ti2495  1  0.64295258  0.83720308  0.47643229  1.0
  Ti  Ti2496  1  0.72628592  0.00386975  0.47643229  1.0
  Ti  Ti2497  1  0.72628592  0.17053641  0.47643229  1.0
  Ti  Ti2498  1  0.72628592  0.33720308  0.47643229  1.0
  Ti  Ti2499  1  0.72628592  0.50386975  0.47643229  1.0
  Ti  Ti2500  1  0.72628592  0.67053641  0.47643229  1.0
  Ti  Ti2501  1  0.72628592  0.83720308  0.47643229  1.0
  Ti  Ti2502  1  0.80961925  0.00386975  0.47643229  1.0
  Ti  Ti2503  1  0.80961925  0.17053641  0.47643229  1.0
  Ti  Ti2504  1  0.80961925  0.33720308  0.47643229  1.0
  Ti  Ti2505  1  0.80961925  0.50386975  0.47643229  1.0
  Ti  Ti2506  1  0.80961925  0.67053641  0.47643229  1.0
  Ti  Ti2507  1  0.80961925  0.83720308  0.47643229  1.0
  Ti  Ti2508  1  0.89295258  0.00386975  0.47643229  1.0
  Ti  Ti2509  1  0.89295258  0.17053641  0.47643229  1.0
  Ti  Ti2510  1  0.89295258  0.33720308  0.47643229  1.0
  Ti  Ti2511  1  0.89295258  0.50386975  0.47643229  1.0
  Ti  Ti2512  1  0.89295258  0.67053641  0.47643229  1.0
  Ti  Ti2513  1  0.89295258  0.83720308  0.47643229  1.0
  Ti  Ti2514  1  0.97628592  0.00386975  0.47643229  1.0
  Ti  Ti2515  1  0.97628592  0.17053641  0.47643229  1.0
  Ti  Ti2516  1  0.97628592  0.33720308  0.47643229  1.0
  Ti  Ti2517  1  0.97628592  0.50386975  0.47643229  1.0
  Ti  Ti2518  1  0.97628592  0.67053641  0.47643229  1.0
  Ti  Ti2519  1  0.97628592  0.83720308  0.47643229  1.0
  Ti  Ti2520  1  0.00009544  0.01577451  0.40500372  1.0
  Ti  Ti2521  1  0.00009544  0.18244117  0.40500372  1.0
  Ti  Ti2522  1  0.00009544  0.34910784  0.40500372  1.0
  Ti  Ti2523  1  0.00009544  0.51577451  0.40500372  1.0
  Ti  Ti2524  1  0.00009544  0.68244117  0.40500372  1.0
  Ti  Ti2525  1  0.00009544  0.84910784  0.40500372  1.0
  Ti  Ti2526  1  0.08342877  0.01577451  0.40500372  1.0
  Ti  Ti2527  1  0.08342877  0.18244117  0.40500372  1.0
  Ti  Ti2528  1  0.08342877  0.34910784  0.40500372  1.0
  Ti  Ti2529  1  0.08342877  0.51577451  0.40500372  1.0
  Ti  Ti2530  1  0.08342877  0.68244117  0.40500372  1.0
  Ti  Ti2531  1  0.08342877  0.84910784  0.40500372  1.0
  Ti  Ti2532  1  0.16676211  0.01577451  0.40500372  1.0
  Ti  Ti2533  1  0.16676211  0.18244117  0.40500372  1.0
  Ti  Ti2534  1  0.16676211  0.34910784  0.40500372  1.0
  Ti  Ti2535  1  0.16676211  0.51577451  0.40500372  1.0
  Ti  Ti2536  1  0.16676211  0.68244117  0.40500372  1.0
  Ti  Ti2537  1  0.16676211  0.84910784  0.40500372  1.0
  Ti  Ti2538  1  0.25009544  0.01577451  0.40500372  1.0
  Ti  Ti2539  1  0.25009544  0.18244117  0.40500372  1.0
  Ti  Ti2540  1  0.25009544  0.34910784  0.40500372  1.0
  Ti  Ti2541  1  0.25009544  0.51577451  0.40500372  1.0
  Ti  Ti2542  1  0.25009544  0.68244117  0.40500372  1.0
  Ti  Ti2543  1  0.25009544  0.84910784  0.40500372  1.0
  Ti  Ti2544  1  0.33342877  0.01577451  0.40500372  1.0
  Ti  Ti2545  1  0.33342877  0.18244117  0.40500372  1.0
  Ti  Ti2546  1  0.33342877  0.34910784  0.40500372  1.0
  Ti  Ti2547  1  0.33342877  0.51577451  0.40500372  1.0
  Ti  Ti2548  1  0.33342877  0.68244117  0.40500372  1.0
  Ti  Ti2549  1  0.33342877  0.84910784  0.40500372  1.0
  Ti  Ti2550  1  0.41676211  0.01577451  0.40500372  1.0
  Ti  Ti2551  1  0.41676211  0.18244117  0.40500372  1.0
  Ti  Ti2552  1  0.41676211  0.34910784  0.40500372  1.0
  Ti  Ti2553  1  0.41676211  0.51577451  0.40500372  1.0
  Ti  Ti2554  1  0.41676211  0.68244117  0.40500372  1.0
  Ti  Ti2555  1  0.41676211  0.84910784  0.40500372  1.0
  Ti  Ti2556  1  0.50009544  0.01577451  0.40500372  1.0
  Ti  Ti2557  1  0.50009544  0.18244117  0.40500372  1.0
  Ti  Ti2558  1  0.50009544  0.34910784  0.40500372  1.0
  Ti  Ti2559  1  0.50009544  0.51577451  0.40500372  1.0
  Ti  Ti2560  1  0.50009544  0.68244117  0.40500372  1.0
  Ti  Ti2561  1  0.50009544  0.84910784  0.40500372  1.0
  Ti  Ti2562  1  0.58342877  0.01577451  0.40500372  1.0
  Ti  Ti2563  1  0.58342877  0.18244117  0.40500372  1.0
  Ti  Ti2564  1  0.58342877  0.34910784  0.40500372  1.0
  Ti  Ti2565  1  0.58342877  0.51577451  0.40500372  1.0
  Ti  Ti2566  1  0.58342877  0.68244117  0.40500372  1.0
  Ti  Ti2567  1  0.58342877  0.84910784  0.40500372  1.0
  Ti  Ti2568  1  0.66676211  0.01577451  0.40500372  1.0
  Ti  Ti2569  1  0.66676211  0.18244117  0.40500372  1.0
  Ti  Ti2570  1  0.66676211  0.34910784  0.40500372  1.0
  Ti  Ti2571  1  0.66676211  0.51577451  0.40500372  1.0
  Ti  Ti2572  1  0.66676211  0.68244117  0.40500372  1.0
  Ti  Ti2573  1  0.66676211  0.84910784  0.40500372  1.0
  Ti  Ti2574  1  0.75009544  0.01577451  0.40500372  1.0
  Ti  Ti2575  1  0.75009544  0.18244117  0.40500372  1.0
  Ti  Ti2576  1  0.75009544  0.34910784  0.40500372  1.0
  Ti  Ti2577  1  0.75009544  0.51577451  0.40500372  1.0
  Ti  Ti2578  1  0.75009544  0.68244117  0.40500372  1.0
  Ti  Ti2579  1  0.75009544  0.84910784  0.40500372  1.0
  Ti  Ti2580  1  0.83342877  0.01577451  0.40500372  1.0
  Ti  Ti2581  1  0.83342877  0.18244117  0.40500372  1.0
  Ti  Ti2582  1  0.83342877  0.34910784  0.40500372  1.0
  Ti  Ti2583  1  0.83342877  0.51577451  0.40500372  1.0
  Ti  Ti2584  1  0.83342877  0.68244117  0.40500372  1.0
  Ti  Ti2585  1  0.83342877  0.84910784  0.40500372  1.0
  Ti  Ti2586  1  0.91676211  0.01577451  0.40500372  1.0
  Ti  Ti2587  1  0.91676211  0.18244117  0.40500372  1.0
  Ti  Ti2588  1  0.91676211  0.34910784  0.40500372  1.0
  Ti  Ti2589  1  0.91676211  0.51577451  0.40500372  1.0
  Ti  Ti2590  1  0.91676211  0.68244117  0.40500372  1.0
  Ti  Ti2591  1  0.91676211  0.84910784  0.40500372  1.0
  Ti  Ti2592  1  0.05262982  0.09512076  0.49582531  1.0
  Ti  Ti2593  1  0.05262982  0.26178742  0.49582531  1.0
  Ti  Ti2594  1  0.05262982  0.42845409  0.49582531  1.0
  Ti  Ti2595  1  0.05262982  0.59512076  0.49582531  1.0
  Ti  Ti2596  1  0.05262982  0.76178742  0.49582531  1.0
  Ti  Ti2597  1  0.05262982  0.92845409  0.49582531  1.0
  Ti  Ti2598  1  0.13596316  0.09512076  0.49582531  1.0
  Ti  Ti2599  1  0.13596316  0.26178742  0.49582531  1.0
  Ti  Ti2600  1  0.13596316  0.42845409  0.49582531  1.0
  Ti  Ti2601  1  0.13596316  0.59512076  0.49582531  1.0
  Ti  Ti2602  1  0.13596316  0.76178742  0.49582531  1.0
  Ti  Ti2603  1  0.13596316  0.92845409  0.49582531  1.0
  Ti  Ti2604  1  0.21929649  0.09512076  0.49582531  1.0
  Ti  Ti2605  1  0.21929649  0.26178742  0.49582531  1.0
  Ti  Ti2606  1  0.21929649  0.42845409  0.49582531  1.0
  Ti  Ti2607  1  0.21929649  0.59512076  0.49582531  1.0
  Ti  Ti2608  1  0.21929649  0.76178742  0.49582531  1.0
  Ti  Ti2609  1  0.21929649  0.92845409  0.49582531  1.0
  Ti  Ti2610  1  0.30262982  0.09512076  0.49582531  1.0
  Ti  Ti2611  1  0.30262982  0.26178742  0.49582531  1.0
  Ti  Ti2612  1  0.30262982  0.42845409  0.49582531  1.0
  Ti  Ti2613  1  0.30262982  0.59512076  0.49582531  1.0
  Ti  Ti2614  1  0.30262982  0.76178742  0.49582531  1.0
  Ti  Ti2615  1  0.30262982  0.92845409  0.49582531  1.0
  Ti  Ti2616  1  0.38596316  0.09512076  0.49582531  1.0
  Ti  Ti2617  1  0.38596316  0.26178742  0.49582531  1.0
  Ti  Ti2618  1  0.38596316  0.42845409  0.49582531  1.0
  Ti  Ti2619  1  0.38596316  0.59512076  0.49582531  1.0
  Ti  Ti2620  1  0.38596316  0.76178742  0.49582531  1.0
  Ti  Ti2621  1  0.38596316  0.92845409  0.49582531  1.0
  Ti  Ti2622  1  0.46929649  0.09512076  0.49582531  1.0
  Ti  Ti2623  1  0.46929649  0.26178742  0.49582531  1.0
  Ti  Ti2624  1  0.46929649  0.42845409  0.49582531  1.0
  Ti  Ti2625  1  0.46929649  0.59512076  0.49582531  1.0
  Ti  Ti2626  1  0.46929649  0.76178742  0.49582531  1.0
  Ti  Ti2627  1  0.46929649  0.92845409  0.49582531  1.0
  Ti  Ti2628  1  0.55262982  0.09512076  0.49582531  1.0
  Ti  Ti2629  1  0.55262982  0.26178742  0.49582531  1.0
  Ti  Ti2630  1  0.55262982  0.42845409  0.49582531  1.0
  Ti  Ti2631  1  0.55262982  0.59512076  0.49582531  1.0
  Ti  Ti2632  1  0.55262982  0.76178742  0.49582531  1.0
  Ti  Ti2633  1  0.55262982  0.92845409  0.49582531  1.0
  Ti  Ti2634  1  0.63596316  0.09512076  0.49582531  1.0
  Ti  Ti2635  1  0.63596316  0.26178742  0.49582531  1.0
  Ti  Ti2636  1  0.63596316  0.42845409  0.49582531  1.0
  Ti  Ti2637  1  0.63596316  0.59512076  0.49582531  1.0
  Ti  Ti2638  1  0.63596316  0.76178742  0.49582531  1.0
  Ti  Ti2639  1  0.63596316  0.92845409  0.49582531  1.0
  Ti  Ti2640  1  0.71929649  0.09512076  0.49582531  1.0
  Ti  Ti2641  1  0.71929649  0.26178742  0.49582531  1.0
  Ti  Ti2642  1  0.71929649  0.42845409  0.49582531  1.0
  Ti  Ti2643  1  0.71929649  0.59512076  0.49582531  1.0
  Ti  Ti2644  1  0.71929649  0.76178742  0.49582531  1.0
  Ti  Ti2645  1  0.71929649  0.92845409  0.49582531  1.0
  Ti  Ti2646  1  0.80262982  0.09512076  0.49582531  1.0
  Ti  Ti2647  1  0.80262982  0.26178742  0.49582531  1.0
  Ti  Ti2648  1  0.80262982  0.42845409  0.49582531  1.0
  Ti  Ti2649  1  0.80262982  0.59512076  0.49582531  1.0
  Ti  Ti2650  1  0.80262982  0.76178742  0.49582531  1.0
  Ti  Ti2651  1  0.80262982  0.92845409  0.49582531  1.0
  Ti  Ti2652  1  0.88596316  0.09512076  0.49582531  1.0
  Ti  Ti2653  1  0.88596316  0.26178742  0.49582531  1.0
  Ti  Ti2654  1  0.88596316  0.42845409  0.49582531  1.0
  Ti  Ti2655  1  0.88596316  0.59512076  0.49582531  1.0
  Ti  Ti2656  1  0.88596316  0.76178742  0.49582531  1.0
  Ti  Ti2657  1  0.88596316  0.92845409  0.49582531  1.0
  Ti  Ti2658  1  0.96929649  0.09512076  0.49582531  1.0
  Ti  Ti2659  1  0.96929649  0.26178742  0.49582531  1.0
  Ti  Ti2660  1  0.96929649  0.42845409  0.49582531  1.0
  Ti  Ti2661  1  0.96929649  0.59512076  0.49582531  1.0
  Ti  Ti2662  1  0.96929649  0.76178742  0.49582531  1.0
  Ti  Ti2663  1  0.96929649  0.92845409  0.49582531  1.0
  Ti  Ti2664  1  0.07643935  0.10702552  0.42439674  1.0
  Ti  Ti2665  1  0.07643935  0.27369219  0.42439674  1.0
  Ti  Ti2666  1  0.07643935  0.44035885  0.42439674  1.0
  Ti  Ti2667  1  0.07643935  0.60702552  0.42439674  1.0
  Ti  Ti2668  1  0.07643935  0.77369219  0.42439674  1.0
  Ti  Ti2669  1  0.07643935  0.94035885  0.42439674  1.0
  Ti  Ti2670  1  0.15977268  0.10702552  0.42439674  1.0
  Ti  Ti2671  1  0.15977268  0.27369219  0.42439674  1.0
  Ti  Ti2672  1  0.15977268  0.44035885  0.42439674  1.0
  Ti  Ti2673  1  0.15977268  0.60702552  0.42439674  1.0
  Ti  Ti2674  1  0.15977268  0.77369219  0.42439674  1.0
  Ti  Ti2675  1  0.15977268  0.94035885  0.42439674  1.0
  Ti  Ti2676  1  0.24310601  0.10702552  0.42439674  1.0
  Ti  Ti2677  1  0.24310601  0.27369219  0.42439674  1.0
  Ti  Ti2678  1  0.24310601  0.44035885  0.42439674  1.0
  Ti  Ti2679  1  0.24310601  0.60702552  0.42439674  1.0
  Ti  Ti2680  1  0.24310601  0.77369219  0.42439674  1.0
  Ti  Ti2681  1  0.24310601  0.94035885  0.42439674  1.0
  Ti  Ti2682  1  0.32643935  0.10702552  0.42439674  1.0
  Ti  Ti2683  1  0.32643935  0.27369219  0.42439674  1.0
  Ti  Ti2684  1  0.32643935  0.44035885  0.42439674  1.0
  Ti  Ti2685  1  0.32643935  0.60702552  0.42439674  1.0
  Ti  Ti2686  1  0.32643935  0.77369219  0.42439674  1.0
  Ti  Ti2687  1  0.32643935  0.94035885  0.42439674  1.0
  Ti  Ti2688  1  0.40977268  0.10702552  0.42439674  1.0
  Ti  Ti2689  1  0.40977268  0.27369219  0.42439674  1.0
  Ti  Ti2690  1  0.40977268  0.44035885  0.42439674  1.0
  Ti  Ti2691  1  0.40977268  0.60702552  0.42439674  1.0
  Ti  Ti2692  1  0.40977268  0.77369219  0.42439674  1.0
  Ti  Ti2693  1  0.40977268  0.94035885  0.42439674  1.0
  Ti  Ti2694  1  0.49310601  0.10702552  0.42439674  1.0
  Ti  Ti2695  1  0.49310601  0.27369219  0.42439674  1.0
  Ti  Ti2696  1  0.49310601  0.44035885  0.42439674  1.0
  Ti  Ti2697  1  0.49310601  0.60702552  0.42439674  1.0
  Ti  Ti2698  1  0.49310601  0.77369219  0.42439674  1.0
  Ti  Ti2699  1  0.49310601  0.94035885  0.42439674  1.0
  Ti  Ti2700  1  0.57643935  0.10702552  0.42439674  1.0
  Ti  Ti2701  1  0.57643935  0.27369219  0.42439674  1.0
  Ti  Ti2702  1  0.57643935  0.44035885  0.42439674  1.0
  Ti  Ti2703  1  0.57643935  0.60702552  0.42439674  1.0
  Ti  Ti2704  1  0.57643935  0.77369219  0.42439674  1.0
  Ti  Ti2705  1  0.57643935  0.94035885  0.42439674  1.0
  Ti  Ti2706  1  0.65977268  0.10702552  0.42439674  1.0
  Ti  Ti2707  1  0.65977268  0.27369219  0.42439674  1.0
  Ti  Ti2708  1  0.65977268  0.44035885  0.42439674  1.0
  Ti  Ti2709  1  0.65977268  0.60702552  0.42439674  1.0
  Ti  Ti2710  1  0.65977268  0.77369219  0.42439674  1.0
  Ti  Ti2711  1  0.65977268  0.94035885  0.42439674  1.0
  Ti  Ti2712  1  0.74310601  0.10702552  0.42439674  1.0
  Ti  Ti2713  1  0.74310601  0.27369219  0.42439674  1.0
  Ti  Ti2714  1  0.74310601  0.44035885  0.42439674  1.0
  Ti  Ti2715  1  0.74310601  0.60702552  0.42439674  1.0
  Ti  Ti2716  1  0.74310601  0.77369219  0.42439674  1.0
  Ti  Ti2717  1  0.74310601  0.94035885  0.42439674  1.0
  Ti  Ti2718  1  0.82643935  0.10702552  0.42439674  1.0
  Ti  Ti2719  1  0.82643935  0.27369219  0.42439674  1.0
  Ti  Ti2720  1  0.82643935  0.44035885  0.42439674  1.0
  Ti  Ti2721  1  0.82643935  0.60702552  0.42439674  1.0
  Ti  Ti2722  1  0.82643935  0.77369219  0.42439674  1.0
  Ti  Ti2723  1  0.82643935  0.94035885  0.42439674  1.0
  Ti  Ti2724  1  0.90977268  0.10702552  0.42439674  1.0
  Ti  Ti2725  1  0.90977268  0.27369219  0.42439674  1.0
  Ti  Ti2726  1  0.90977268  0.44035885  0.42439674  1.0
  Ti  Ti2727  1  0.90977268  0.60702552  0.42439674  1.0
  Ti  Ti2728  1  0.90977268  0.77369219  0.42439674  1.0
  Ti  Ti2729  1  0.90977268  0.94035885  0.42439674  1.0
  Ti  Ti2730  1  0.99310601  0.10702552  0.42439674  1.0
  Ti  Ti2731  1  0.99310601  0.27369219  0.42439674  1.0
  Ti  Ti2732  1  0.99310601  0.44035885  0.42439674  1.0
  Ti  Ti2733  1  0.99310601  0.60702552  0.42439674  1.0
  Ti  Ti2734  1  0.99310601  0.77369219  0.42439674  1.0
  Ti  Ti2735  1  0.99310601  0.94035885  0.42439674  1.0
  Ti  Ti2736  1  0.01609510  0.02758610  0.48012659  1.0
  Ti  Ti2737  1  0.01609510  0.19425277  0.48012659  1.0
  Ti  Ti2738  1  0.01609510  0.36091944  0.48012659  1.0
  Ti  Ti2739  1  0.01609510  0.52758610  0.48012659  1.0
  Ti  Ti2740  1  0.01609510  0.69425277  0.48012659  1.0
  Ti  Ti2741  1  0.01609510  0.86091944  0.48012659  1.0
  Ti  Ti2742  1  0.09942843  0.02758610  0.48012659  1.0
  Ti  Ti2743  1  0.09942843  0.19425277  0.48012659  1.0
  Ti  Ti2744  1  0.09942843  0.36091944  0.48012659  1.0
  Ti  Ti2745  1  0.09942843  0.52758610  0.48012659  1.0
  Ti  Ti2746  1  0.09942843  0.69425277  0.48012659  1.0
  Ti  Ti2747  1  0.09942843  0.86091944  0.48012659  1.0
  Ti  Ti2748  1  0.18276176  0.02758610  0.48012659  1.0
  Ti  Ti2749  1  0.18276176  0.19425277  0.48012659  1.0
  Ti  Ti2750  1  0.18276176  0.36091944  0.48012659  1.0
  Ti  Ti2751  1  0.18276176  0.52758610  0.48012659  1.0
  Ti  Ti2752  1  0.18276176  0.69425277  0.48012659  1.0
  Ti  Ti2753  1  0.18276176  0.86091944  0.48012659  1.0
  Ti  Ti2754  1  0.26609510  0.02758610  0.48012659  1.0
  Ti  Ti2755  1  0.26609510  0.19425277  0.48012659  1.0
  Ti  Ti2756  1  0.26609510  0.36091944  0.48012659  1.0
  Ti  Ti2757  1  0.26609510  0.52758610  0.48012659  1.0
  Ti  Ti2758  1  0.26609510  0.69425277  0.48012659  1.0
  Ti  Ti2759  1  0.26609510  0.86091944  0.48012659  1.0
  Ti  Ti2760  1  0.34942843  0.02758610  0.48012659  1.0
  Ti  Ti2761  1  0.34942843  0.19425277  0.48012659  1.0
  Ti  Ti2762  1  0.34942843  0.36091944  0.48012659  1.0
  Ti  Ti2763  1  0.34942843  0.52758610  0.48012659  1.0
  Ti  Ti2764  1  0.34942843  0.69425277  0.48012659  1.0
  Ti  Ti2765  1  0.34942843  0.86091944  0.48012659  1.0
  Ti  Ti2766  1  0.43276176  0.02758610  0.48012659  1.0
  Ti  Ti2767  1  0.43276176  0.19425277  0.48012659  1.0
  Ti  Ti2768  1  0.43276176  0.36091944  0.48012659  1.0
  Ti  Ti2769  1  0.43276176  0.52758610  0.48012659  1.0
  Ti  Ti2770  1  0.43276176  0.69425277  0.48012659  1.0
  Ti  Ti2771  1  0.43276176  0.86091944  0.48012659  1.0
  Ti  Ti2772  1  0.51609510  0.02758610  0.48012659  1.0
  Ti  Ti2773  1  0.51609510  0.19425277  0.48012659  1.0
  Ti  Ti2774  1  0.51609510  0.36091944  0.48012659  1.0
  Ti  Ti2775  1  0.51609510  0.52758610  0.48012659  1.0
  Ti  Ti2776  1  0.51609510  0.69425277  0.48012659  1.0
  Ti  Ti2777  1  0.51609510  0.86091944  0.48012659  1.0
  Ti  Ti2778  1  0.59942843  0.02758610  0.48012659  1.0
  Ti  Ti2779  1  0.59942843  0.19425277  0.48012659  1.0
  Ti  Ti2780  1  0.59942843  0.36091944  0.48012659  1.0
  Ti  Ti2781  1  0.59942843  0.52758610  0.48012659  1.0
  Ti  Ti2782  1  0.59942843  0.69425277  0.48012659  1.0
  Ti  Ti2783  1  0.59942843  0.86091944  0.48012659  1.0
  Ti  Ti2784  1  0.68276176  0.02758610  0.48012659  1.0
  Ti  Ti2785  1  0.68276176  0.19425277  0.48012659  1.0
  Ti  Ti2786  1  0.68276176  0.36091944  0.48012659  1.0
  Ti  Ti2787  1  0.68276176  0.52758610  0.48012659  1.0
  Ti  Ti2788  1  0.68276176  0.69425277  0.48012659  1.0
  Ti  Ti2789  1  0.68276176  0.86091944  0.48012659  1.0
  Ti  Ti2790  1  0.76609510  0.02758610  0.48012659  1.0
  Ti  Ti2791  1  0.76609510  0.19425277  0.48012659  1.0
  Ti  Ti2792  1  0.76609510  0.36091944  0.48012659  1.0
  Ti  Ti2793  1  0.76609510  0.52758610  0.48012659  1.0
  Ti  Ti2794  1  0.76609510  0.69425277  0.48012659  1.0
  Ti  Ti2795  1  0.76609510  0.86091944  0.48012659  1.0
  Ti  Ti2796  1  0.84942843  0.02758610  0.48012659  1.0
  Ti  Ti2797  1  0.84942843  0.19425277  0.48012659  1.0
  Ti  Ti2798  1  0.84942843  0.36091944  0.48012659  1.0
  Ti  Ti2799  1  0.84942843  0.52758610  0.48012659  1.0
  Ti  Ti2800  1  0.84942843  0.69425277  0.48012659  1.0
  Ti  Ti2801  1  0.84942843  0.86091944  0.48012659  1.0
  Ti  Ti2802  1  0.93276176  0.02758610  0.48012659  1.0
  Ti  Ti2803  1  0.93276176  0.19425277  0.48012659  1.0
  Ti  Ti2804  1  0.93276176  0.36091944  0.48012659  1.0
  Ti  Ti2805  1  0.93276176  0.52758610  0.48012659  1.0
  Ti  Ti2806  1  0.93276176  0.69425277  0.48012659  1.0
  Ti  Ti2807  1  0.93276176  0.86091944  0.48012659  1.0
  Ti  Ti2808  1  0.03990462  0.03949086  0.40869802  1.0
  Ti  Ti2809  1  0.03990462  0.20615753  0.40869802  1.0
  Ti  Ti2810  1  0.03990462  0.37282420  0.40869802  1.0
  Ti  Ti2811  1  0.03990462  0.53949086  0.40869802  1.0
  Ti  Ti2812  1  0.03990462  0.70615753  0.40869802  1.0
  Ti  Ti2813  1  0.03990462  0.87282420  0.40869802  1.0
  Ti  Ti2814  1  0.12323795  0.03949086  0.40869802  1.0
  Ti  Ti2815  1  0.12323795  0.20615753  0.40869802  1.0
  Ti  Ti2816  1  0.12323795  0.37282420  0.40869802  1.0
  Ti  Ti2817  1  0.12323795  0.53949086  0.40869802  1.0
  Ti  Ti2818  1  0.12323795  0.70615753  0.40869802  1.0
  Ti  Ti2819  1  0.12323795  0.87282420  0.40869802  1.0
  Ti  Ti2820  1  0.20657129  0.03949086  0.40869802  1.0
  Ti  Ti2821  1  0.20657129  0.20615753  0.40869802  1.0
  Ti  Ti2822  1  0.20657129  0.37282420  0.40869802  1.0
  Ti  Ti2823  1  0.20657129  0.53949086  0.40869802  1.0
  Ti  Ti2824  1  0.20657129  0.70615753  0.40869802  1.0
  Ti  Ti2825  1  0.20657129  0.87282420  0.40869802  1.0
  Ti  Ti2826  1  0.28990462  0.03949086  0.40869802  1.0
  Ti  Ti2827  1  0.28990462  0.20615753  0.40869802  1.0
  Ti  Ti2828  1  0.28990462  0.37282420  0.40869802  1.0
  Ti  Ti2829  1  0.28990462  0.53949086  0.40869802  1.0
  Ti  Ti2830  1  0.28990462  0.70615753  0.40869802  1.0
  Ti  Ti2831  1  0.28990462  0.87282420  0.40869802  1.0
  Ti  Ti2832  1  0.37323795  0.03949086  0.40869802  1.0
  Ti  Ti2833  1  0.37323795  0.20615753  0.40869802  1.0
  Ti  Ti2834  1  0.37323795  0.37282420  0.40869802  1.0
  Ti  Ti2835  1  0.37323795  0.53949086  0.40869802  1.0
  Ti  Ti2836  1  0.37323795  0.70615753  0.40869802  1.0
  Ti  Ti2837  1  0.37323795  0.87282420  0.40869802  1.0
  Ti  Ti2838  1  0.45657129  0.03949086  0.40869802  1.0
  Ti  Ti2839  1  0.45657129  0.20615753  0.40869802  1.0
  Ti  Ti2840  1  0.45657129  0.37282420  0.40869802  1.0
  Ti  Ti2841  1  0.45657129  0.53949086  0.40869802  1.0
  Ti  Ti2842  1  0.45657129  0.70615753  0.40869802  1.0
  Ti  Ti2843  1  0.45657129  0.87282420  0.40869802  1.0
  Ti  Ti2844  1  0.53990462  0.03949086  0.40869802  1.0
  Ti  Ti2845  1  0.53990462  0.20615753  0.40869802  1.0
  Ti  Ti2846  1  0.53990462  0.37282420  0.40869802  1.0
  Ti  Ti2847  1  0.53990462  0.53949086  0.40869802  1.0
  Ti  Ti2848  1  0.53990462  0.70615753  0.40869802  1.0
  Ti  Ti2849  1  0.53990462  0.87282420  0.40869802  1.0
  Ti  Ti2850  1  0.62323795  0.03949086  0.40869802  1.0
  Ti  Ti2851  1  0.62323795  0.20615753  0.40869802  1.0
  Ti  Ti2852  1  0.62323795  0.37282420  0.40869802  1.0
  Ti  Ti2853  1  0.62323795  0.53949086  0.40869802  1.0
  Ti  Ti2854  1  0.62323795  0.70615753  0.40869802  1.0
  Ti  Ti2855  1  0.62323795  0.87282420  0.40869802  1.0
  Ti  Ti2856  1  0.70657129  0.03949086  0.40869802  1.0
  Ti  Ti2857  1  0.70657129  0.20615753  0.40869802  1.0
  Ti  Ti2858  1  0.70657129  0.37282420  0.40869802  1.0
  Ti  Ti2859  1  0.70657129  0.53949086  0.40869802  1.0
  Ti  Ti2860  1  0.70657129  0.70615753  0.40869802  1.0
  Ti  Ti2861  1  0.70657129  0.87282420  0.40869802  1.0
  Ti  Ti2862  1  0.78990462  0.03949086  0.40869802  1.0
  Ti  Ti2863  1  0.78990462  0.20615753  0.40869802  1.0
  Ti  Ti2864  1  0.78990462  0.37282420  0.40869802  1.0
  Ti  Ti2865  1  0.78990462  0.53949086  0.40869802  1.0
  Ti  Ti2866  1  0.78990462  0.70615753  0.40869802  1.0
  Ti  Ti2867  1  0.78990462  0.87282420  0.40869802  1.0
  Ti  Ti2868  1  0.87323795  0.03949086  0.40869802  1.0
  Ti  Ti2869  1  0.87323795  0.20615753  0.40869802  1.0
  Ti  Ti2870  1  0.87323795  0.37282420  0.40869802  1.0
  Ti  Ti2871  1  0.87323795  0.53949086  0.40869802  1.0
  Ti  Ti2872  1  0.87323795  0.70615753  0.40869802  1.0
  Ti  Ti2873  1  0.87323795  0.87282420  0.40869802  1.0
  Ti  Ti2874  1  0.95657129  0.03949086  0.40869802  1.0
  Ti  Ti2875  1  0.95657129  0.20615753  0.40869802  1.0
  Ti  Ti2876  1  0.95657129  0.37282420  0.40869802  1.0
  Ti  Ti2877  1  0.95657129  0.53949086  0.40869802  1.0
  Ti  Ti2878  1  0.95657129  0.70615753  0.40869802  1.0
  Ti  Ti2879  1  0.95657129  0.87282420  0.40869802  1.0
  Ti  Ti2880  1  0.01984143  0.14688005  0.47277201  1.0
  Ti  Ti2881  1  0.01984143  0.31354672  0.47277201  1.0
  Ti  Ti2882  1  0.01984143  0.48021338  0.47277201  1.0
  Ti  Ti2883  1  0.01984143  0.64688005  0.47277201  1.0
  Ti  Ti2884  1  0.01984143  0.81354672  0.47277201  1.0
  Ti  Ti2885  1  0.01984143  0.98021338  0.47277201  1.0
  Ti  Ti2886  1  0.10317476  0.14688005  0.47277201  1.0
  Ti  Ti2887  1  0.10317476  0.31354672  0.47277201  1.0
  Ti  Ti2888  1  0.10317476  0.48021338  0.47277201  1.0
  Ti  Ti2889  1  0.10317476  0.64688005  0.47277201  1.0
  Ti  Ti2890  1  0.10317476  0.81354672  0.47277201  1.0
  Ti  Ti2891  1  0.10317476  0.98021338  0.47277201  1.0
  Ti  Ti2892  1  0.18650809  0.14688005  0.47277201  1.0
  Ti  Ti2893  1  0.18650809  0.31354672  0.47277201  1.0
  Ti  Ti2894  1  0.18650809  0.48021338  0.47277201  1.0
  Ti  Ti2895  1  0.18650809  0.64688005  0.47277201  1.0
  Ti  Ti2896  1  0.18650809  0.81354672  0.47277201  1.0
  Ti  Ti2897  1  0.18650809  0.98021338  0.47277201  1.0
  Ti  Ti2898  1  0.26984143  0.14688005  0.47277201  1.0
  Ti  Ti2899  1  0.26984143  0.31354672  0.47277201  1.0
  Ti  Ti2900  1  0.26984143  0.48021338  0.47277201  1.0
  Ti  Ti2901  1  0.26984143  0.64688005  0.47277201  1.0
  Ti  Ti2902  1  0.26984143  0.81354672  0.47277201  1.0
  Ti  Ti2903  1  0.26984143  0.98021338  0.47277201  1.0
  Ti  Ti2904  1  0.35317476  0.14688005  0.47277201  1.0
  Ti  Ti2905  1  0.35317476  0.31354672  0.47277201  1.0
  Ti  Ti2906  1  0.35317476  0.48021338  0.47277201  1.0
  Ti  Ti2907  1  0.35317476  0.64688005  0.47277201  1.0
  Ti  Ti2908  1  0.35317476  0.81354672  0.47277201  1.0
  Ti  Ti2909  1  0.35317476  0.98021338  0.47277201  1.0
  Ti  Ti2910  1  0.43650809  0.14688005  0.47277201  1.0
  Ti  Ti2911  1  0.43650809  0.31354672  0.47277201  1.0
  Ti  Ti2912  1  0.43650809  0.48021338  0.47277201  1.0
  Ti  Ti2913  1  0.43650809  0.64688005  0.47277201  1.0
  Ti  Ti2914  1  0.43650809  0.81354672  0.47277201  1.0
  Ti  Ti2915  1  0.43650809  0.98021338  0.47277201  1.0
  Ti  Ti2916  1  0.51984143  0.14688005  0.47277201  1.0
  Ti  Ti2917  1  0.51984143  0.31354672  0.47277201  1.0
  Ti  Ti2918  1  0.51984143  0.48021338  0.47277201  1.0
  Ti  Ti2919  1  0.51984143  0.64688005  0.47277201  1.0
  Ti  Ti2920  1  0.51984143  0.81354672  0.47277201  1.0
  Ti  Ti2921  1  0.51984143  0.98021338  0.47277201  1.0
  Ti  Ti2922  1  0.60317476  0.14688005  0.47277201  1.0
  Ti  Ti2923  1  0.60317476  0.31354672  0.47277201  1.0
  Ti  Ti2924  1  0.60317476  0.48021338  0.47277201  1.0
  Ti  Ti2925  1  0.60317476  0.64688005  0.47277201  1.0
  Ti  Ti2926  1  0.60317476  0.81354672  0.47277201  1.0
  Ti  Ti2927  1  0.60317476  0.98021338  0.47277201  1.0
  Ti  Ti2928  1  0.68650809  0.14688005  0.47277201  1.0
  Ti  Ti2929  1  0.68650809  0.31354672  0.47277201  1.0
  Ti  Ti2930  1  0.68650809  0.48021338  0.47277201  1.0
  Ti  Ti2931  1  0.68650809  0.64688005  0.47277201  1.0
  Ti  Ti2932  1  0.68650809  0.81354672  0.47277201  1.0
  Ti  Ti2933  1  0.68650809  0.98021338  0.47277201  1.0
  Ti  Ti2934  1  0.76984143  0.14688005  0.47277201  1.0
  Ti  Ti2935  1  0.76984143  0.31354672  0.47277201  1.0
  Ti  Ti2936  1  0.76984143  0.48021338  0.47277201  1.0
  Ti  Ti2937  1  0.76984143  0.64688005  0.47277201  1.0
  Ti  Ti2938  1  0.76984143  0.81354672  0.47277201  1.0
  Ti  Ti2939  1  0.76984143  0.98021338  0.47277201  1.0
  Ti  Ti2940  1  0.85317476  0.14688005  0.47277201  1.0
  Ti  Ti2941  1  0.85317476  0.31354672  0.47277201  1.0
  Ti  Ti2942  1  0.85317476  0.48021338  0.47277201  1.0
  Ti  Ti2943  1  0.85317476  0.64688005  0.47277201  1.0
  Ti  Ti2944  1  0.85317476  0.81354672  0.47277201  1.0
  Ti  Ti2945  1  0.85317476  0.98021338  0.47277201  1.0
  Ti  Ti2946  1  0.93650809  0.14688005  0.47277201  1.0
  Ti  Ti2947  1  0.93650809  0.31354672  0.47277201  1.0
  Ti  Ti2948  1  0.93650809  0.48021338  0.47277201  1.0
  Ti  Ti2949  1  0.93650809  0.64688005  0.47277201  1.0
  Ti  Ti2950  1  0.93650809  0.81354672  0.47277201  1.0
  Ti  Ti2951  1  0.93650809  0.98021338  0.47277201  1.0
  Ti  Ti2952  1  0.04365095  0.15878481  0.40134344  1.0
  Ti  Ti2953  1  0.04365095  0.32545148  0.40134344  1.0
  Ti  Ti2954  1  0.04365095  0.49211814  0.40134344  1.0
  Ti  Ti2955  1  0.04365095  0.65878481  0.40134344  1.0
  Ti  Ti2956  1  0.04365095  0.82545148  0.40134344  1.0
  Ti  Ti2957  1  0.04365095  0.99211814  0.40134344  1.0
  Ti  Ti2958  1  0.12698429  0.15878481  0.40134344  1.0
  Ti  Ti2959  1  0.12698429  0.32545148  0.40134344  1.0
  Ti  Ti2960  1  0.12698429  0.49211814  0.40134344  1.0
  Ti  Ti2961  1  0.12698429  0.65878481  0.40134344  1.0
  Ti  Ti2962  1  0.12698429  0.82545148  0.40134344  1.0
  Ti  Ti2963  1  0.12698429  0.99211814  0.40134344  1.0
  Ti  Ti2964  1  0.21031762  0.15878481  0.40134344  1.0
  Ti  Ti2965  1  0.21031762  0.32545148  0.40134344  1.0
  Ti  Ti2966  1  0.21031762  0.49211814  0.40134344  1.0
  Ti  Ti2967  1  0.21031762  0.65878481  0.40134344  1.0
  Ti  Ti2968  1  0.21031762  0.82545148  0.40134344  1.0
  Ti  Ti2969  1  0.21031762  0.99211814  0.40134344  1.0
  Ti  Ti2970  1  0.29365095  0.15878481  0.40134344  1.0
  Ti  Ti2971  1  0.29365095  0.32545148  0.40134344  1.0
  Ti  Ti2972  1  0.29365095  0.49211814  0.40134344  1.0
  Ti  Ti2973  1  0.29365095  0.65878481  0.40134344  1.0
  Ti  Ti2974  1  0.29365095  0.82545148  0.40134344  1.0
  Ti  Ti2975  1  0.29365095  0.99211814  0.40134344  1.0
  Ti  Ti2976  1  0.37698429  0.15878481  0.40134344  1.0
  Ti  Ti2977  1  0.37698429  0.32545148  0.40134344  1.0
  Ti  Ti2978  1  0.37698429  0.49211814  0.40134344  1.0
  Ti  Ti2979  1  0.37698429  0.65878481  0.40134344  1.0
  Ti  Ti2980  1  0.37698429  0.82545148  0.40134344  1.0
  Ti  Ti2981  1  0.37698429  0.99211814  0.40134344  1.0
  Ti  Ti2982  1  0.46031762  0.15878481  0.40134344  1.0
  Ti  Ti2983  1  0.46031762  0.32545148  0.40134344  1.0
  Ti  Ti2984  1  0.46031762  0.49211814  0.40134344  1.0
  Ti  Ti2985  1  0.46031762  0.65878481  0.40134344  1.0
  Ti  Ti2986  1  0.46031762  0.82545148  0.40134344  1.0
  Ti  Ti2987  1  0.46031762  0.99211814  0.40134344  1.0
  Ti  Ti2988  1  0.54365095  0.15878481  0.40134344  1.0
  Ti  Ti2989  1  0.54365095  0.32545148  0.40134344  1.0
  Ti  Ti2990  1  0.54365095  0.49211814  0.40134344  1.0
  Ti  Ti2991  1  0.54365095  0.65878481  0.40134344  1.0
  Ti  Ti2992  1  0.54365095  0.82545148  0.40134344  1.0
  Ti  Ti2993  1  0.54365095  0.99211814  0.40134344  1.0
  Ti  Ti2994  1  0.62698429  0.15878481  0.40134344  1.0
  Ti  Ti2995  1  0.62698429  0.32545148  0.40134344  1.0
  Ti  Ti2996  1  0.62698429  0.49211814  0.40134344  1.0
  Ti  Ti2997  1  0.62698429  0.65878481  0.40134344  1.0
  Ti  Ti2998  1  0.62698429  0.82545148  0.40134344  1.0
  Ti  Ti2999  1  0.62698429  0.99211814  0.40134344  1.0
  Ti  Ti3000  1  0.71031762  0.15878481  0.40134344  1.0
  Ti  Ti3001  1  0.71031762  0.32545148  0.40134344  1.0
  Ti  Ti3002  1  0.71031762  0.49211814  0.40134344  1.0
  Ti  Ti3003  1  0.71031762  0.65878481  0.40134344  1.0
  Ti  Ti3004  1  0.71031762  0.82545148  0.40134344  1.0
  Ti  Ti3005  1  0.71031762  0.99211814  0.40134344  1.0
  Ti  Ti3006  1  0.79365095  0.15878481  0.40134344  1.0
  Ti  Ti3007  1  0.79365095  0.32545148  0.40134344  1.0
  Ti  Ti3008  1  0.79365095  0.49211814  0.40134344  1.0
  Ti  Ti3009  1  0.79365095  0.65878481  0.40134344  1.0
  Ti  Ti3010  1  0.79365095  0.82545148  0.40134344  1.0
  Ti  Ti3011  1  0.79365095  0.99211814  0.40134344  1.0
  Ti  Ti3012  1  0.87698429  0.15878481  0.40134344  1.0
  Ti  Ti3013  1  0.87698429  0.32545148  0.40134344  1.0
  Ti  Ti3014  1  0.87698429  0.49211814  0.40134344  1.0
  Ti  Ti3015  1  0.87698429  0.65878481  0.40134344  1.0
  Ti  Ti3016  1  0.87698429  0.82545148  0.40134344  1.0
  Ti  Ti3017  1  0.87698429  0.99211814  0.40134344  1.0
  Ti  Ti3018  1  0.96031762  0.15878481  0.40134344  1.0
  Ti  Ti3019  1  0.96031762  0.32545148  0.40134344  1.0
  Ti  Ti3020  1  0.96031762  0.49211814  0.40134344  1.0
  Ti  Ti3021  1  0.96031762  0.65878481  0.40134344  1.0
  Ti  Ti3022  1  0.96031762  0.82545148  0.40134344  1.0
  Ti  Ti3023  1  0.96031762  0.99211814  0.40134344  1.0
  Ti  Ti3024  1  0.01288110  0.07150573  0.49004560  1.0
  Ti  Ti3025  1  0.01288110  0.23817240  0.49004560  1.0
  Ti  Ti3026  1  0.01288110  0.40483907  0.49004560  1.0
  Ti  Ti3027  1  0.01288110  0.57150573  0.49004560  1.0
  Ti  Ti3028  1  0.01288110  0.73817240  0.49004560  1.0
  Ti  Ti3029  1  0.01288110  0.90483907  0.49004560  1.0
  Ti  Ti3030  1  0.09621443  0.07150573  0.49004560  1.0
  Ti  Ti3031  1  0.09621443  0.23817240  0.49004560  1.0
  Ti  Ti3032  1  0.09621443  0.40483907  0.49004560  1.0
  Ti  Ti3033  1  0.09621443  0.57150573  0.49004560  1.0
  Ti  Ti3034  1  0.09621443  0.73817240  0.49004560  1.0
  Ti  Ti3035  1  0.09621443  0.90483907  0.49004560  1.0
  Ti  Ti3036  1  0.17954777  0.07150573  0.49004560  1.0
  Ti  Ti3037  1  0.17954777  0.23817240  0.49004560  1.0
  Ti  Ti3038  1  0.17954777  0.40483907  0.49004560  1.0
  Ti  Ti3039  1  0.17954777  0.57150573  0.49004560  1.0
  Ti  Ti3040  1  0.17954777  0.73817240  0.49004560  1.0
  Ti  Ti3041  1  0.17954777  0.90483907  0.49004560  1.0
  Ti  Ti3042  1  0.26288110  0.07150573  0.49004560  1.0
  Ti  Ti3043  1  0.26288110  0.23817240  0.49004560  1.0
  Ti  Ti3044  1  0.26288110  0.40483907  0.49004560  1.0
  Ti  Ti3045  1  0.26288110  0.57150573  0.49004560  1.0
  Ti  Ti3046  1  0.26288110  0.73817240  0.49004560  1.0
  Ti  Ti3047  1  0.26288110  0.90483907  0.49004560  1.0
  Ti  Ti3048  1  0.34621443  0.07150573  0.49004560  1.0
  Ti  Ti3049  1  0.34621443  0.23817240  0.49004560  1.0
  Ti  Ti3050  1  0.34621443  0.40483907  0.49004560  1.0
  Ti  Ti3051  1  0.34621443  0.57150573  0.49004560  1.0
  Ti  Ti3052  1  0.34621443  0.73817240  0.49004560  1.0
  Ti  Ti3053  1  0.34621443  0.90483907  0.49004560  1.0
  Ti  Ti3054  1  0.42954777  0.07150573  0.49004560  1.0
  Ti  Ti3055  1  0.42954777  0.23817240  0.49004560  1.0
  Ti  Ti3056  1  0.42954777  0.40483907  0.49004560  1.0
  Ti  Ti3057  1  0.42954777  0.57150573  0.49004560  1.0
  Ti  Ti3058  1  0.42954777  0.73817240  0.49004560  1.0
  Ti  Ti3059  1  0.42954777  0.90483907  0.49004560  1.0
  Ti  Ti3060  1  0.51288110  0.07150573  0.49004560  1.0
  Ti  Ti3061  1  0.51288110  0.23817240  0.49004560  1.0
  Ti  Ti3062  1  0.51288110  0.40483907  0.49004560  1.0
  Ti  Ti3063  1  0.51288110  0.57150573  0.49004560  1.0
  Ti  Ti3064  1  0.51288110  0.73817240  0.49004560  1.0
  Ti  Ti3065  1  0.51288110  0.90483907  0.49004560  1.0
  Ti  Ti3066  1  0.59621443  0.07150573  0.49004560  1.0
  Ti  Ti3067  1  0.59621443  0.23817240  0.49004560  1.0
  Ti  Ti3068  1  0.59621443  0.40483907  0.49004560  1.0
  Ti  Ti3069  1  0.59621443  0.57150573  0.49004560  1.0
  Ti  Ti3070  1  0.59621443  0.73817240  0.49004560  1.0
  Ti  Ti3071  1  0.59621443  0.90483907  0.49004560  1.0
  Ti  Ti3072  1  0.67954777  0.07150573  0.49004560  1.0
  Ti  Ti3073  1  0.67954777  0.23817240  0.49004560  1.0
  Ti  Ti3074  1  0.67954777  0.40483907  0.49004560  1.0
  Ti  Ti3075  1  0.67954777  0.57150573  0.49004560  1.0
  Ti  Ti3076  1  0.67954777  0.73817240  0.49004560  1.0
  Ti  Ti3077  1  0.67954777  0.90483907  0.49004560  1.0
  Ti  Ti3078  1  0.76288110  0.07150573  0.49004560  1.0
  Ti  Ti3079  1  0.76288110  0.23817240  0.49004560  1.0
  Ti  Ti3080  1  0.76288110  0.40483907  0.49004560  1.0
  Ti  Ti3081  1  0.76288110  0.57150573  0.49004560  1.0
  Ti  Ti3082  1  0.76288110  0.73817240  0.49004560  1.0
  Ti  Ti3083  1  0.76288110  0.90483907  0.49004560  1.0
  Ti  Ti3084  1  0.84621443  0.07150573  0.49004560  1.0
  Ti  Ti3085  1  0.84621443  0.23817240  0.49004560  1.0
  Ti  Ti3086  1  0.84621443  0.40483907  0.49004560  1.0
  Ti  Ti3087  1  0.84621443  0.57150573  0.49004560  1.0
  Ti  Ti3088  1  0.84621443  0.73817240  0.49004560  1.0
  Ti  Ti3089  1  0.84621443  0.90483907  0.49004560  1.0
  Ti  Ti3090  1  0.92954777  0.07150573  0.49004560  1.0
  Ti  Ti3091  1  0.92954777  0.23817240  0.49004560  1.0
  Ti  Ti3092  1  0.92954777  0.40483907  0.49004560  1.0
  Ti  Ti3093  1  0.92954777  0.57150573  0.49004560  1.0
  Ti  Ti3094  1  0.92954777  0.73817240  0.49004560  1.0
  Ti  Ti3095  1  0.92954777  0.90483907  0.49004560  1.0
  Ti  Ti3096  1  0.03669062  0.08341050  0.41861703  1.0
  Ti  Ti3097  1  0.03669062  0.25007716  0.41861703  1.0
  Ti  Ti3098  1  0.03669062  0.41674383  0.41861703  1.0
  Ti  Ti3099  1  0.03669062  0.58341050  0.41861703  1.0
  Ti  Ti3100  1  0.03669062  0.75007716  0.41861703  1.0
  Ti  Ti3101  1  0.03669062  0.91674383  0.41861703  1.0
  Ti  Ti3102  1  0.12002396  0.08341050  0.41861703  1.0
  Ti  Ti3103  1  0.12002396  0.25007716  0.41861703  1.0
  Ti  Ti3104  1  0.12002396  0.41674383  0.41861703  1.0
  Ti  Ti3105  1  0.12002396  0.58341050  0.41861703  1.0
  Ti  Ti3106  1  0.12002396  0.75007716  0.41861703  1.0
  Ti  Ti3107  1  0.12002396  0.91674383  0.41861703  1.0
  Ti  Ti3108  1  0.20335729  0.08341050  0.41861703  1.0
  Ti  Ti3109  1  0.20335729  0.25007716  0.41861703  1.0
  Ti  Ti3110  1  0.20335729  0.41674383  0.41861703  1.0
  Ti  Ti3111  1  0.20335729  0.58341050  0.41861703  1.0
  Ti  Ti3112  1  0.20335729  0.75007716  0.41861703  1.0
  Ti  Ti3113  1  0.20335729  0.91674383  0.41861703  1.0
  Ti  Ti3114  1  0.28669062  0.08341050  0.41861703  1.0
  Ti  Ti3115  1  0.28669062  0.25007716  0.41861703  1.0
  Ti  Ti3116  1  0.28669062  0.41674383  0.41861703  1.0
  Ti  Ti3117  1  0.28669062  0.58341050  0.41861703  1.0
  Ti  Ti3118  1  0.28669062  0.75007716  0.41861703  1.0
  Ti  Ti3119  1  0.28669062  0.91674383  0.41861703  1.0
  Ti  Ti3120  1  0.37002396  0.08341050  0.41861703  1.0
  Ti  Ti3121  1  0.37002396  0.25007716  0.41861703  1.0
  Ti  Ti3122  1  0.37002396  0.41674383  0.41861703  1.0
  Ti  Ti3123  1  0.37002396  0.58341050  0.41861703  1.0
  Ti  Ti3124  1  0.37002396  0.75007716  0.41861703  1.0
  Ti  Ti3125  1  0.37002396  0.91674383  0.41861703  1.0
  Ti  Ti3126  1  0.45335729  0.08341050  0.41861703  1.0
  Ti  Ti3127  1  0.45335729  0.25007716  0.41861703  1.0
  Ti  Ti3128  1  0.45335729  0.41674383  0.41861703  1.0
  Ti  Ti3129  1  0.45335729  0.58341050  0.41861703  1.0
  Ti  Ti3130  1  0.45335729  0.75007716  0.41861703  1.0
  Ti  Ti3131  1  0.45335729  0.91674383  0.41861703  1.0
  Ti  Ti3132  1  0.53669062  0.08341050  0.41861703  1.0
  Ti  Ti3133  1  0.53669062  0.25007716  0.41861703  1.0
  Ti  Ti3134  1  0.53669062  0.41674383  0.41861703  1.0
  Ti  Ti3135  1  0.53669062  0.58341050  0.41861703  1.0
  Ti  Ti3136  1  0.53669062  0.75007716  0.41861703  1.0
  Ti  Ti3137  1  0.53669062  0.91674383  0.41861703  1.0
  Ti  Ti3138  1  0.62002396  0.08341050  0.41861703  1.0
  Ti  Ti3139  1  0.62002396  0.25007716  0.41861703  1.0
  Ti  Ti3140  1  0.62002396  0.41674383  0.41861703  1.0
  Ti  Ti3141  1  0.62002396  0.58341050  0.41861703  1.0
  Ti  Ti3142  1  0.62002396  0.75007716  0.41861703  1.0
  Ti  Ti3143  1  0.62002396  0.91674383  0.41861703  1.0
  Ti  Ti3144  1  0.70335729  0.08341050  0.41861703  1.0
  Ti  Ti3145  1  0.70335729  0.25007716  0.41861703  1.0
  Ti  Ti3146  1  0.70335729  0.41674383  0.41861703  1.0
  Ti  Ti3147  1  0.70335729  0.58341050  0.41861703  1.0
  Ti  Ti3148  1  0.70335729  0.75007716  0.41861703  1.0
  Ti  Ti3149  1  0.70335729  0.91674383  0.41861703  1.0
  Ti  Ti3150  1  0.78669062  0.08341050  0.41861703  1.0
  Ti  Ti3151  1  0.78669062  0.25007716  0.41861703  1.0
  Ti  Ti3152  1  0.78669062  0.41674383  0.41861703  1.0
  Ti  Ti3153  1  0.78669062  0.58341050  0.41861703  1.0
  Ti  Ti3154  1  0.78669062  0.75007716  0.41861703  1.0
  Ti  Ti3155  1  0.78669062  0.91674383  0.41861703  1.0
  Ti  Ti3156  1  0.87002396  0.08341050  0.41861703  1.0
  Ti  Ti3157  1  0.87002396  0.25007716  0.41861703  1.0
  Ti  Ti3158  1  0.87002396  0.41674383  0.41861703  1.0
  Ti  Ti3159  1  0.87002396  0.58341050  0.41861703  1.0
  Ti  Ti3160  1  0.87002396  0.75007716  0.41861703  1.0
  Ti  Ti3161  1  0.87002396  0.91674383  0.41861703  1.0
  Ti  Ti3162  1  0.95335729  0.08341050  0.41861703  1.0
  Ti  Ti3163  1  0.95335729  0.25007716  0.41861703  1.0
  Ti  Ti3164  1  0.95335729  0.41674383  0.41861703  1.0
  Ti  Ti3165  1  0.95335729  0.58341050  0.41861703  1.0
  Ti  Ti3166  1  0.95335729  0.75007716  0.41861703  1.0
  Ti  Ti3167  1  0.95335729  0.91674383  0.41861703  1.0
  Ti  Ti3168  1  0.04288379  0.06742541  0.52850128  1.0
  Ti  Ti3169  1  0.04288379  0.23409208  0.52850128  1.0
  Ti  Ti3170  1  0.04288379  0.40075874  0.52850128  1.0
  Ti  Ti3171  1  0.04288379  0.56742541  0.52850128  1.0
  Ti  Ti3172  1  0.04288379  0.73409208  0.52850128  1.0
  Ti  Ti3173  1  0.04288379  0.90075874  0.52850128  1.0
  Ti  Ti3174  1  0.12621713  0.06742541  0.52850128  1.0
  Ti  Ti3175  1  0.12621713  0.23409208  0.52850128  1.0
  Ti  Ti3176  1  0.12621713  0.40075874  0.52850128  1.0
  Ti  Ti3177  1  0.12621713  0.56742541  0.52850128  1.0
  Ti  Ti3178  1  0.12621713  0.73409208  0.52850128  1.0
  Ti  Ti3179  1  0.12621713  0.90075874  0.52850128  1.0
  Ti  Ti3180  1  0.20955046  0.06742541  0.52850128  1.0
  Ti  Ti3181  1  0.20955046  0.23409208  0.52850128  1.0
  Ti  Ti3182  1  0.20955046  0.40075874  0.52850128  1.0
  Ti  Ti3183  1  0.20955046  0.56742541  0.52850128  1.0
  Ti  Ti3184  1  0.20955046  0.73409208  0.52850128  1.0
  Ti  Ti3185  1  0.20955046  0.90075874  0.52850128  1.0
  Ti  Ti3186  1  0.29288379  0.06742541  0.52850128  1.0
  Ti  Ti3187  1  0.29288379  0.23409208  0.52850128  1.0
  Ti  Ti3188  1  0.29288379  0.40075874  0.52850128  1.0
  Ti  Ti3189  1  0.29288379  0.56742541  0.52850128  1.0
  Ti  Ti3190  1  0.29288379  0.73409208  0.52850128  1.0
  Ti  Ti3191  1  0.29288379  0.90075874  0.52850128  1.0
  Ti  Ti3192  1  0.37621713  0.06742541  0.52850128  1.0
  Ti  Ti3193  1  0.37621713  0.23409208  0.52850128  1.0
  Ti  Ti3194  1  0.37621713  0.40075874  0.52850128  1.0
  Ti  Ti3195  1  0.37621713  0.56742541  0.52850128  1.0
  Ti  Ti3196  1  0.37621713  0.73409208  0.52850128  1.0
  Ti  Ti3197  1  0.37621713  0.90075874  0.52850128  1.0
  Ti  Ti3198  1  0.45955046  0.06742541  0.52850128  1.0
  Ti  Ti3199  1  0.45955046  0.23409208  0.52850128  1.0
  Ti  Ti3200  1  0.45955046  0.40075874  0.52850128  1.0
  Ti  Ti3201  1  0.45955046  0.56742541  0.52850128  1.0
  Ti  Ti3202  1  0.45955046  0.73409208  0.52850128  1.0
  Ti  Ti3203  1  0.45955046  0.90075874  0.52850128  1.0
  Ti  Ti3204  1  0.54288379  0.06742541  0.52850128  1.0
  Ti  Ti3205  1  0.54288379  0.23409208  0.52850128  1.0
  Ti  Ti3206  1  0.54288379  0.40075874  0.52850128  1.0
  Ti  Ti3207  1  0.54288379  0.56742541  0.52850128  1.0
  Ti  Ti3208  1  0.54288379  0.73409208  0.52850128  1.0
  Ti  Ti3209  1  0.54288379  0.90075874  0.52850128  1.0
  Ti  Ti3210  1  0.62621713  0.06742541  0.52850128  1.0
  Ti  Ti3211  1  0.62621713  0.23409208  0.52850128  1.0
  Ti  Ti3212  1  0.62621713  0.40075874  0.52850128  1.0
  Ti  Ti3213  1  0.62621713  0.56742541  0.52850128  1.0
  Ti  Ti3214  1  0.62621713  0.73409208  0.52850128  1.0
  Ti  Ti3215  1  0.62621713  0.90075874  0.52850128  1.0
  Ti  Ti3216  1  0.70955046  0.06742541  0.52850128  1.0
  Ti  Ti3217  1  0.70955046  0.23409208  0.52850128  1.0
  Ti  Ti3218  1  0.70955046  0.40075874  0.52850128  1.0
  Ti  Ti3219  1  0.70955046  0.56742541  0.52850128  1.0
  Ti  Ti3220  1  0.70955046  0.73409208  0.52850128  1.0
  Ti  Ti3221  1  0.70955046  0.90075874  0.52850128  1.0
  Ti  Ti3222  1  0.79288379  0.06742541  0.52850128  1.0
  Ti  Ti3223  1  0.79288379  0.23409208  0.52850128  1.0
  Ti  Ti3224  1  0.79288379  0.40075874  0.52850128  1.0
  Ti  Ti3225  1  0.79288379  0.56742541  0.52850128  1.0
  Ti  Ti3226  1  0.79288379  0.73409208  0.52850128  1.0
  Ti  Ti3227  1  0.79288379  0.90075874  0.52850128  1.0
  Ti  Ti3228  1  0.87621713  0.06742541  0.52850128  1.0
  Ti  Ti3229  1  0.87621713  0.23409208  0.52850128  1.0
  Ti  Ti3230  1  0.87621713  0.40075874  0.52850128  1.0
  Ti  Ti3231  1  0.87621713  0.56742541  0.52850128  1.0
  Ti  Ti3232  1  0.87621713  0.73409208  0.52850128  1.0
  Ti  Ti3233  1  0.87621713  0.90075874  0.52850128  1.0
  Ti  Ti3234  1  0.95955046  0.06742541  0.52850128  1.0
  Ti  Ti3235  1  0.95955046  0.23409208  0.52850128  1.0
  Ti  Ti3236  1  0.95955046  0.40075874  0.52850128  1.0
  Ti  Ti3237  1  0.95955046  0.56742541  0.52850128  1.0
  Ti  Ti3238  1  0.95955046  0.73409208  0.52850128  1.0
  Ti  Ti3239  1  0.95955046  0.90075874  0.52850128  1.0
  Ti  Ti3240  1  0.01907427  0.05552065  0.59992985  1.0
  Ti  Ti3241  1  0.01907427  0.22218732  0.59992985  1.0
  Ti  Ti3242  1  0.01907427  0.38885398  0.59992985  1.0
  Ti  Ti3243  1  0.01907427  0.55552065  0.59992985  1.0
  Ti  Ti3244  1  0.01907427  0.72218732  0.59992985  1.0
  Ti  Ti3245  1  0.01907427  0.88885398  0.59992985  1.0
  Ti  Ti3246  1  0.10240760  0.05552065  0.59992985  1.0
  Ti  Ti3247  1  0.10240760  0.22218732  0.59992985  1.0
  Ti  Ti3248  1  0.10240760  0.38885398  0.59992985  1.0
  Ti  Ti3249  1  0.10240760  0.55552065  0.59992985  1.0
  Ti  Ti3250  1  0.10240760  0.72218732  0.59992985  1.0
  Ti  Ti3251  1  0.10240760  0.88885398  0.59992985  1.0
  Ti  Ti3252  1  0.18574094  0.05552065  0.59992985  1.0
  Ti  Ti3253  1  0.18574094  0.22218732  0.59992985  1.0
  Ti  Ti3254  1  0.18574094  0.38885398  0.59992985  1.0
  Ti  Ti3255  1  0.18574094  0.55552065  0.59992985  1.0
  Ti  Ti3256  1  0.18574094  0.72218732  0.59992985  1.0
  Ti  Ti3257  1  0.18574094  0.88885398  0.59992985  1.0
  Ti  Ti3258  1  0.26907427  0.05552065  0.59992985  1.0
  Ti  Ti3259  1  0.26907427  0.22218732  0.59992985  1.0
  Ti  Ti3260  1  0.26907427  0.38885398  0.59992985  1.0
  Ti  Ti3261  1  0.26907427  0.55552065  0.59992985  1.0
  Ti  Ti3262  1  0.26907427  0.72218732  0.59992985  1.0
  Ti  Ti3263  1  0.26907427  0.88885398  0.59992985  1.0
  Ti  Ti3264  1  0.35240760  0.05552065  0.59992985  1.0
  Ti  Ti3265  1  0.35240760  0.22218732  0.59992985  1.0
  Ti  Ti3266  1  0.35240760  0.38885398  0.59992985  1.0
  Ti  Ti3267  1  0.35240760  0.55552065  0.59992985  1.0
  Ti  Ti3268  1  0.35240760  0.72218732  0.59992985  1.0
  Ti  Ti3269  1  0.35240760  0.88885398  0.59992985  1.0
  Ti  Ti3270  1  0.43574094  0.05552065  0.59992985  1.0
  Ti  Ti3271  1  0.43574094  0.22218732  0.59992985  1.0
  Ti  Ti3272  1  0.43574094  0.38885398  0.59992985  1.0
  Ti  Ti3273  1  0.43574094  0.55552065  0.59992985  1.0
  Ti  Ti3274  1  0.43574094  0.72218732  0.59992985  1.0
  Ti  Ti3275  1  0.43574094  0.88885398  0.59992985  1.0
  Ti  Ti3276  1  0.51907427  0.05552065  0.59992985  1.0
  Ti  Ti3277  1  0.51907427  0.22218732  0.59992985  1.0
  Ti  Ti3278  1  0.51907427  0.38885398  0.59992985  1.0
  Ti  Ti3279  1  0.51907427  0.55552065  0.59992985  1.0
  Ti  Ti3280  1  0.51907427  0.72218732  0.59992985  1.0
  Ti  Ti3281  1  0.51907427  0.88885398  0.59992985  1.0
  Ti  Ti3282  1  0.60240760  0.05552065  0.59992985  1.0
  Ti  Ti3283  1  0.60240760  0.22218732  0.59992985  1.0
  Ti  Ti3284  1  0.60240760  0.38885398  0.59992985  1.0
  Ti  Ti3285  1  0.60240760  0.55552065  0.59992985  1.0
  Ti  Ti3286  1  0.60240760  0.72218732  0.59992985  1.0
  Ti  Ti3287  1  0.60240760  0.88885398  0.59992985  1.0
  Ti  Ti3288  1  0.68574094  0.05552065  0.59992985  1.0
  Ti  Ti3289  1  0.68574094  0.22218732  0.59992985  1.0
  Ti  Ti3290  1  0.68574094  0.38885398  0.59992985  1.0
  Ti  Ti3291  1  0.68574094  0.55552065  0.59992985  1.0
  Ti  Ti3292  1  0.68574094  0.72218732  0.59992985  1.0
  Ti  Ti3293  1  0.68574094  0.88885398  0.59992985  1.0
  Ti  Ti3294  1  0.76907427  0.05552065  0.59992985  1.0
  Ti  Ti3295  1  0.76907427  0.22218732  0.59992985  1.0
  Ti  Ti3296  1  0.76907427  0.38885398  0.59992985  1.0
  Ti  Ti3297  1  0.76907427  0.55552065  0.59992985  1.0
  Ti  Ti3298  1  0.76907427  0.72218732  0.59992985  1.0
  Ti  Ti3299  1  0.76907427  0.88885398  0.59992985  1.0
  Ti  Ti3300  1  0.85240760  0.05552065  0.59992985  1.0
  Ti  Ti3301  1  0.85240760  0.22218732  0.59992985  1.0
  Ti  Ti3302  1  0.85240760  0.38885398  0.59992985  1.0
  Ti  Ti3303  1  0.85240760  0.55552065  0.59992985  1.0
  Ti  Ti3304  1  0.85240760  0.72218732  0.59992985  1.0
  Ti  Ti3305  1  0.85240760  0.88885398  0.59992985  1.0
  Ti  Ti3306  1  0.93574094  0.05552065  0.59992985  1.0
  Ti  Ti3307  1  0.93574094  0.22218732  0.59992985  1.0
  Ti  Ti3308  1  0.93574094  0.38885398  0.59992985  1.0
  Ti  Ti3309  1  0.93574094  0.55552065  0.59992985  1.0
  Ti  Ti3310  1  0.93574094  0.72218732  0.59992985  1.0
  Ti  Ti3311  1  0.93574094  0.88885398  0.59992985  1.0
  Ti  Ti3312  1  0.04813343  0.14137294  0.50695622  1.0
  Ti  Ti3313  1  0.04813343  0.30803961  0.50695622  1.0
  Ti  Ti3314  1  0.04813343  0.47470627  0.50695622  1.0
  Ti  Ti3315  1  0.04813343  0.64137294  0.50695622  1.0
  Ti  Ti3316  1  0.04813343  0.80803961  0.50695622  1.0
  Ti  Ti3317  1  0.04813343  0.97470627  0.50695622  1.0
  Ti  Ti3318  1  0.13146677  0.14137294  0.50695622  1.0
  Ti  Ti3319  1  0.13146677  0.30803961  0.50695622  1.0
  Ti  Ti3320  1  0.13146677  0.47470627  0.50695622  1.0
  Ti  Ti3321  1  0.13146677  0.64137294  0.50695622  1.0
  Ti  Ti3322  1  0.13146677  0.80803961  0.50695622  1.0
  Ti  Ti3323  1  0.13146677  0.97470627  0.50695622  1.0
  Ti  Ti3324  1  0.21480010  0.14137294  0.50695622  1.0
  Ti  Ti3325  1  0.21480010  0.30803961  0.50695622  1.0
  Ti  Ti3326  1  0.21480010  0.47470627  0.50695622  1.0
  Ti  Ti3327  1  0.21480010  0.64137294  0.50695622  1.0
  Ti  Ti3328  1  0.21480010  0.80803961  0.50695622  1.0
  Ti  Ti3329  1  0.21480010  0.97470627  0.50695622  1.0
  Ti  Ti3330  1  0.29813343  0.14137294  0.50695622  1.0
  Ti  Ti3331  1  0.29813343  0.30803961  0.50695622  1.0
  Ti  Ti3332  1  0.29813343  0.47470627  0.50695622  1.0
  Ti  Ti3333  1  0.29813343  0.64137294  0.50695622  1.0
  Ti  Ti3334  1  0.29813343  0.80803961  0.50695622  1.0
  Ti  Ti3335  1  0.29813343  0.97470627  0.50695622  1.0
  Ti  Ti3336  1  0.38146677  0.14137294  0.50695622  1.0
  Ti  Ti3337  1  0.38146677  0.30803961  0.50695622  1.0
  Ti  Ti3338  1  0.38146677  0.47470627  0.50695622  1.0
  Ti  Ti3339  1  0.38146677  0.64137294  0.50695622  1.0
  Ti  Ti3340  1  0.38146677  0.80803961  0.50695622  1.0
  Ti  Ti3341  1  0.38146677  0.97470627  0.50695622  1.0
  Ti  Ti3342  1  0.46480010  0.14137294  0.50695622  1.0
  Ti  Ti3343  1  0.46480010  0.30803961  0.50695622  1.0
  Ti  Ti3344  1  0.46480010  0.47470627  0.50695622  1.0
  Ti  Ti3345  1  0.46480010  0.64137294  0.50695622  1.0
  Ti  Ti3346  1  0.46480010  0.80803961  0.50695622  1.0
  Ti  Ti3347  1  0.46480010  0.97470627  0.50695622  1.0
  Ti  Ti3348  1  0.54813343  0.14137294  0.50695622  1.0
  Ti  Ti3349  1  0.54813343  0.30803961  0.50695622  1.0
  Ti  Ti3350  1  0.54813343  0.47470627  0.50695622  1.0
  Ti  Ti3351  1  0.54813343  0.64137294  0.50695622  1.0
  Ti  Ti3352  1  0.54813343  0.80803961  0.50695622  1.0
  Ti  Ti3353  1  0.54813343  0.97470627  0.50695622  1.0
  Ti  Ti3354  1  0.63146677  0.14137294  0.50695622  1.0
  Ti  Ti3355  1  0.63146677  0.30803961  0.50695622  1.0
  Ti  Ti3356  1  0.63146677  0.47470627  0.50695622  1.0
  Ti  Ti3357  1  0.63146677  0.64137294  0.50695622  1.0
  Ti  Ti3358  1  0.63146677  0.80803961  0.50695622  1.0
  Ti  Ti3359  1  0.63146677  0.97470627  0.50695622  1.0
  Ti  Ti3360  1  0.71480010  0.14137294  0.50695622  1.0
  Ti  Ti3361  1  0.71480010  0.30803961  0.50695622  1.0
  Ti  Ti3362  1  0.71480010  0.47470627  0.50695622  1.0
  Ti  Ti3363  1  0.71480010  0.64137294  0.50695622  1.0
  Ti  Ti3364  1  0.71480010  0.80803961  0.50695622  1.0
  Ti  Ti3365  1  0.71480010  0.97470627  0.50695622  1.0
  Ti  Ti3366  1  0.79813343  0.14137294  0.50695622  1.0
  Ti  Ti3367  1  0.79813343  0.30803961  0.50695622  1.0
  Ti  Ti3368  1  0.79813343  0.47470627  0.50695622  1.0
  Ti  Ti3369  1  0.79813343  0.64137294  0.50695622  1.0
  Ti  Ti3370  1  0.79813343  0.80803961  0.50695622  1.0
  Ti  Ti3371  1  0.79813343  0.97470627  0.50695622  1.0
  Ti  Ti3372  1  0.88146677  0.14137294  0.50695622  1.0
  Ti  Ti3373  1  0.88146677  0.30803961  0.50695622  1.0
  Ti  Ti3374  1  0.88146677  0.47470627  0.50695622  1.0
  Ti  Ti3375  1  0.88146677  0.64137294  0.50695622  1.0
  Ti  Ti3376  1  0.88146677  0.80803961  0.50695622  1.0
  Ti  Ti3377  1  0.88146677  0.97470627  0.50695622  1.0
  Ti  Ti3378  1  0.96480010  0.14137294  0.50695622  1.0
  Ti  Ti3379  1  0.96480010  0.30803961  0.50695622  1.0
  Ti  Ti3380  1  0.96480010  0.47470627  0.50695622  1.0
  Ti  Ti3381  1  0.96480010  0.64137294  0.50695622  1.0
  Ti  Ti3382  1  0.96480010  0.80803961  0.50695622  1.0
  Ti  Ti3383  1  0.96480010  0.97470627  0.50695622  1.0
  Ti  Ti3384  1  0.02432391  0.12946818  0.57838479  1.0
  Ti  Ti3385  1  0.02432391  0.29613484  0.57838479  1.0
  Ti  Ti3386  1  0.02432391  0.46280151  0.57838479  1.0
  Ti  Ti3387  1  0.02432391  0.62946818  0.57838479  1.0
  Ti  Ti3388  1  0.02432391  0.79613484  0.57838479  1.0
  Ti  Ti3389  1  0.02432391  0.96280151  0.57838479  1.0
  Ti  Ti3390  1  0.10765724  0.12946818  0.57838479  1.0
  Ti  Ti3391  1  0.10765724  0.29613484  0.57838479  1.0
  Ti  Ti3392  1  0.10765724  0.46280151  0.57838479  1.0
  Ti  Ti3393  1  0.10765724  0.62946818  0.57838479  1.0
  Ti  Ti3394  1  0.10765724  0.79613484  0.57838479  1.0
  Ti  Ti3395  1  0.10765724  0.96280151  0.57838479  1.0
  Ti  Ti3396  1  0.19099058  0.12946818  0.57838479  1.0
  Ti  Ti3397  1  0.19099058  0.29613484  0.57838479  1.0
  Ti  Ti3398  1  0.19099058  0.46280151  0.57838479  1.0
  Ti  Ti3399  1  0.19099058  0.62946818  0.57838479  1.0
  Ti  Ti3400  1  0.19099058  0.79613484  0.57838479  1.0
  Ti  Ti3401  1  0.19099058  0.96280151  0.57838479  1.0
  Ti  Ti3402  1  0.27432391  0.12946818  0.57838479  1.0
  Ti  Ti3403  1  0.27432391  0.29613484  0.57838479  1.0
  Ti  Ti3404  1  0.27432391  0.46280151  0.57838479  1.0
  Ti  Ti3405  1  0.27432391  0.62946818  0.57838479  1.0
  Ti  Ti3406  1  0.27432391  0.79613484  0.57838479  1.0
  Ti  Ti3407  1  0.27432391  0.96280151  0.57838479  1.0
  Ti  Ti3408  1  0.35765724  0.12946818  0.57838479  1.0
  Ti  Ti3409  1  0.35765724  0.29613484  0.57838479  1.0
  Ti  Ti3410  1  0.35765724  0.46280151  0.57838479  1.0
  Ti  Ti3411  1  0.35765724  0.62946818  0.57838479  1.0
  Ti  Ti3412  1  0.35765724  0.79613484  0.57838479  1.0
  Ti  Ti3413  1  0.35765724  0.96280151  0.57838479  1.0
  Ti  Ti3414  1  0.44099058  0.12946818  0.57838479  1.0
  Ti  Ti3415  1  0.44099058  0.29613484  0.57838479  1.0
  Ti  Ti3416  1  0.44099058  0.46280151  0.57838479  1.0
  Ti  Ti3417  1  0.44099058  0.62946818  0.57838479  1.0
  Ti  Ti3418  1  0.44099058  0.79613484  0.57838479  1.0
  Ti  Ti3419  1  0.44099058  0.96280151  0.57838479  1.0
  Ti  Ti3420  1  0.52432391  0.12946818  0.57838479  1.0
  Ti  Ti3421  1  0.52432391  0.29613484  0.57838479  1.0
  Ti  Ti3422  1  0.52432391  0.46280151  0.57838479  1.0
  Ti  Ti3423  1  0.52432391  0.62946818  0.57838479  1.0
  Ti  Ti3424  1  0.52432391  0.79613484  0.57838479  1.0
  Ti  Ti3425  1  0.52432391  0.96280151  0.57838479  1.0
  Ti  Ti3426  1  0.60765724  0.12946818  0.57838479  1.0
  Ti  Ti3427  1  0.60765724  0.29613484  0.57838479  1.0
  Ti  Ti3428  1  0.60765724  0.46280151  0.57838479  1.0
  Ti  Ti3429  1  0.60765724  0.62946818  0.57838479  1.0
  Ti  Ti3430  1  0.60765724  0.79613484  0.57838479  1.0
  Ti  Ti3431  1  0.60765724  0.96280151  0.57838479  1.0
  Ti  Ti3432  1  0.69099058  0.12946818  0.57838479  1.0
  Ti  Ti3433  1  0.69099058  0.29613484  0.57838479  1.0
  Ti  Ti3434  1  0.69099058  0.46280151  0.57838479  1.0
  Ti  Ti3435  1  0.69099058  0.62946818  0.57838479  1.0
  Ti  Ti3436  1  0.69099058  0.79613484  0.57838479  1.0
  Ti  Ti3437  1  0.69099058  0.96280151  0.57838479  1.0
  Ti  Ti3438  1  0.77432391  0.12946818  0.57838479  1.0
  Ti  Ti3439  1  0.77432391  0.29613484  0.57838479  1.0
  Ti  Ti3440  1  0.77432391  0.46280151  0.57838479  1.0
  Ti  Ti3441  1  0.77432391  0.62946818  0.57838479  1.0
  Ti  Ti3442  1  0.77432391  0.79613484  0.57838479  1.0
  Ti  Ti3443  1  0.77432391  0.96280151  0.57838479  1.0
  Ti  Ti3444  1  0.85765724  0.12946818  0.57838479  1.0
  Ti  Ti3445  1  0.85765724  0.29613484  0.57838479  1.0
  Ti  Ti3446  1  0.85765724  0.46280151  0.57838479  1.0
  Ti  Ti3447  1  0.85765724  0.62946818  0.57838479  1.0
  Ti  Ti3448  1  0.85765724  0.79613484  0.57838479  1.0
  Ti  Ti3449  1  0.85765724  0.96280151  0.57838479  1.0
  Ti  Ti3450  1  0.94099058  0.12946818  0.57838479  1.0
  Ti  Ti3451  1  0.94099058  0.29613484  0.57838479  1.0
  Ti  Ti3452  1  0.94099058  0.46280151  0.57838479  1.0
  Ti  Ti3453  1  0.94099058  0.62946818  0.57838479  1.0
  Ti  Ti3454  1  0.94099058  0.79613484  0.57838479  1.0
  Ti  Ti3455  1  0.94099058  0.96280151  0.57838479  1.0
  Ti  Ti3456  1  0.04732565  0.02117954  0.51735444  1.0
  Ti  Ti3457  1  0.04732565  0.18784620  0.51735444  1.0
  Ti  Ti3458  1  0.04732565  0.35451287  0.51735444  1.0
  Ti  Ti3459  1  0.04732565  0.52117954  0.51735444  1.0
  Ti  Ti3460  1  0.04732565  0.68784620  0.51735444  1.0
  Ti  Ti3461  1  0.04732565  0.85451287  0.51735444  1.0
  Ti  Ti3462  1  0.13065898  0.02117954  0.51735444  1.0
  Ti  Ti3463  1  0.13065898  0.18784620  0.51735444  1.0
  Ti  Ti3464  1  0.13065898  0.35451287  0.51735444  1.0
  Ti  Ti3465  1  0.13065898  0.52117954  0.51735444  1.0
  Ti  Ti3466  1  0.13065898  0.68784620  0.51735444  1.0
  Ti  Ti3467  1  0.13065898  0.85451287  0.51735444  1.0
  Ti  Ti3468  1  0.21399231  0.02117954  0.51735444  1.0
  Ti  Ti3469  1  0.21399231  0.18784620  0.51735444  1.0
  Ti  Ti3470  1  0.21399231  0.35451287  0.51735444  1.0
  Ti  Ti3471  1  0.21399231  0.52117954  0.51735444  1.0
  Ti  Ti3472  1  0.21399231  0.68784620  0.51735444  1.0
  Ti  Ti3473  1  0.21399231  0.85451287  0.51735444  1.0
  Ti  Ti3474  1  0.29732565  0.02117954  0.51735444  1.0
  Ti  Ti3475  1  0.29732565  0.18784620  0.51735444  1.0
  Ti  Ti3476  1  0.29732565  0.35451287  0.51735444  1.0
  Ti  Ti3477  1  0.29732565  0.52117954  0.51735444  1.0
  Ti  Ti3478  1  0.29732565  0.68784620  0.51735444  1.0
  Ti  Ti3479  1  0.29732565  0.85451287  0.51735444  1.0
  Ti  Ti3480  1  0.38065898  0.02117954  0.51735444  1.0
  Ti  Ti3481  1  0.38065898  0.18784620  0.51735444  1.0
  Ti  Ti3482  1  0.38065898  0.35451287  0.51735444  1.0
  Ti  Ti3483  1  0.38065898  0.52117954  0.51735444  1.0
  Ti  Ti3484  1  0.38065898  0.68784620  0.51735444  1.0
  Ti  Ti3485  1  0.38065898  0.85451287  0.51735444  1.0
  Ti  Ti3486  1  0.46399231  0.02117954  0.51735444  1.0
  Ti  Ti3487  1  0.46399231  0.18784620  0.51735444  1.0
  Ti  Ti3488  1  0.46399231  0.35451287  0.51735444  1.0
  Ti  Ti3489  1  0.46399231  0.52117954  0.51735444  1.0
  Ti  Ti3490  1  0.46399231  0.68784620  0.51735444  1.0
  Ti  Ti3491  1  0.46399231  0.85451287  0.51735444  1.0
  Ti  Ti3492  1  0.54732565  0.02117954  0.51735444  1.0
  Ti  Ti3493  1  0.54732565  0.18784620  0.51735444  1.0
  Ti  Ti3494  1  0.54732565  0.35451287  0.51735444  1.0
  Ti  Ti3495  1  0.54732565  0.52117954  0.51735444  1.0
  Ti  Ti3496  1  0.54732565  0.68784620  0.51735444  1.0
  Ti  Ti3497  1  0.54732565  0.85451287  0.51735444  1.0
  Ti  Ti3498  1  0.63065898  0.02117954  0.51735444  1.0
  Ti  Ti3499  1  0.63065898  0.18784620  0.51735444  1.0
  Ti  Ti3500  1  0.63065898  0.35451287  0.51735444  1.0
  Ti  Ti3501  1  0.63065898  0.52117954  0.51735444  1.0
  Ti  Ti3502  1  0.63065898  0.68784620  0.51735444  1.0
  Ti  Ti3503  1  0.63065898  0.85451287  0.51735444  1.0
  Ti  Ti3504  1  0.71399231  0.02117954  0.51735444  1.0
  Ti  Ti3505  1  0.71399231  0.18784620  0.51735444  1.0
  Ti  Ti3506  1  0.71399231  0.35451287  0.51735444  1.0
  Ti  Ti3507  1  0.71399231  0.52117954  0.51735444  1.0
  Ti  Ti3508  1  0.71399231  0.68784620  0.51735444  1.0
  Ti  Ti3509  1  0.71399231  0.85451287  0.51735444  1.0
  Ti  Ti3510  1  0.79732565  0.02117954  0.51735444  1.0
  Ti  Ti3511  1  0.79732565  0.18784620  0.51735444  1.0
  Ti  Ti3512  1  0.79732565  0.35451287  0.51735444  1.0
  Ti  Ti3513  1  0.79732565  0.52117954  0.51735444  1.0
  Ti  Ti3514  1  0.79732565  0.68784620  0.51735444  1.0
  Ti  Ti3515  1  0.79732565  0.85451287  0.51735444  1.0
  Ti  Ti3516  1  0.88065898  0.02117954  0.51735444  1.0
  Ti  Ti3517  1  0.88065898  0.18784620  0.51735444  1.0
  Ti  Ti3518  1  0.88065898  0.35451287  0.51735444  1.0
  Ti  Ti3519  1  0.88065898  0.52117954  0.51735444  1.0
  Ti  Ti3520  1  0.88065898  0.68784620  0.51735444  1.0
  Ti  Ti3521  1  0.88065898  0.85451287  0.51735444  1.0
  Ti  Ti3522  1  0.96399231  0.02117954  0.51735444  1.0
  Ti  Ti3523  1  0.96399231  0.18784620  0.51735444  1.0
  Ti  Ti3524  1  0.96399231  0.35451287  0.51735444  1.0
  Ti  Ti3525  1  0.96399231  0.52117954  0.51735444  1.0
  Ti  Ti3526  1  0.96399231  0.68784620  0.51735444  1.0
  Ti  Ti3527  1  0.96399231  0.85451287  0.51735444  1.0
  Ti  Ti3528  1  0.02351612  0.00927477  0.58878301  1.0
  Ti  Ti3529  1  0.02351612  0.17594144  0.58878301  1.0
  Ti  Ti3530  1  0.02351612  0.34260811  0.58878301  1.0
  Ti  Ti3531  1  0.02351612  0.50927477  0.58878301  1.0
  Ti  Ti3532  1  0.02351612  0.67594144  0.58878301  1.0
  Ti  Ti3533  1  0.02351612  0.84260811  0.58878301  1.0
  Ti  Ti3534  1  0.10684945  0.00927477  0.58878301  1.0
  Ti  Ti3535  1  0.10684945  0.17594144  0.58878301  1.0
  Ti  Ti3536  1  0.10684945  0.34260811  0.58878301  1.0
  Ti  Ti3537  1  0.10684945  0.50927477  0.58878301  1.0
  Ti  Ti3538  1  0.10684945  0.67594144  0.58878301  1.0
  Ti  Ti3539  1  0.10684945  0.84260811  0.58878301  1.0
  Ti  Ti3540  1  0.19018279  0.00927477  0.58878301  1.0
  Ti  Ti3541  1  0.19018279  0.17594144  0.58878301  1.0
  Ti  Ti3542  1  0.19018279  0.34260811  0.58878301  1.0
  Ti  Ti3543  1  0.19018279  0.50927477  0.58878301  1.0
  Ti  Ti3544  1  0.19018279  0.67594144  0.58878301  1.0
  Ti  Ti3545  1  0.19018279  0.84260811  0.58878301  1.0
  Ti  Ti3546  1  0.27351612  0.00927477  0.58878301  1.0
  Ti  Ti3547  1  0.27351612  0.17594144  0.58878301  1.0
  Ti  Ti3548  1  0.27351612  0.34260811  0.58878301  1.0
  Ti  Ti3549  1  0.27351612  0.50927477  0.58878301  1.0
  Ti  Ti3550  1  0.27351612  0.67594144  0.58878301  1.0
  Ti  Ti3551  1  0.27351612  0.84260811  0.58878301  1.0
  Ti  Ti3552  1  0.35684945  0.00927477  0.58878301  1.0
  Ti  Ti3553  1  0.35684945  0.17594144  0.58878301  1.0
  Ti  Ti3554  1  0.35684945  0.34260811  0.58878301  1.0
  Ti  Ti3555  1  0.35684945  0.50927477  0.58878301  1.0
  Ti  Ti3556  1  0.35684945  0.67594144  0.58878301  1.0
  Ti  Ti3557  1  0.35684945  0.84260811  0.58878301  1.0
  Ti  Ti3558  1  0.44018279  0.00927477  0.58878301  1.0
  Ti  Ti3559  1  0.44018279  0.17594144  0.58878301  1.0
  Ti  Ti3560  1  0.44018279  0.34260811  0.58878301  1.0
  Ti  Ti3561  1  0.44018279  0.50927477  0.58878301  1.0
  Ti  Ti3562  1  0.44018279  0.67594144  0.58878301  1.0
  Ti  Ti3563  1  0.44018279  0.84260811  0.58878301  1.0
  Ti  Ti3564  1  0.52351612  0.00927477  0.58878301  1.0
  Ti  Ti3565  1  0.52351612  0.17594144  0.58878301  1.0
  Ti  Ti3566  1  0.52351612  0.34260811  0.58878301  1.0
  Ti  Ti3567  1  0.52351612  0.50927477  0.58878301  1.0
  Ti  Ti3568  1  0.52351612  0.67594144  0.58878301  1.0
  Ti  Ti3569  1  0.52351612  0.84260811  0.58878301  1.0
  Ti  Ti3570  1  0.60684945  0.00927477  0.58878301  1.0
  Ti  Ti3571  1  0.60684945  0.17594144  0.58878301  1.0
  Ti  Ti3572  1  0.60684945  0.34260811  0.58878301  1.0
  Ti  Ti3573  1  0.60684945  0.50927477  0.58878301  1.0
  Ti  Ti3574  1  0.60684945  0.67594144  0.58878301  1.0
  Ti  Ti3575  1  0.60684945  0.84260811  0.58878301  1.0
  Ti  Ti3576  1  0.69018279  0.00927477  0.58878301  1.0
  Ti  Ti3577  1  0.69018279  0.17594144  0.58878301  1.0
  Ti  Ti3578  1  0.69018279  0.34260811  0.58878301  1.0
  Ti  Ti3579  1  0.69018279  0.50927477  0.58878301  1.0
  Ti  Ti3580  1  0.69018279  0.67594144  0.58878301  1.0
  Ti  Ti3581  1  0.69018279  0.84260811  0.58878301  1.0
  Ti  Ti3582  1  0.77351612  0.00927477  0.58878301  1.0
  Ti  Ti3583  1  0.77351612  0.17594144  0.58878301  1.0
  Ti  Ti3584  1  0.77351612  0.34260811  0.58878301  1.0
  Ti  Ti3585  1  0.77351612  0.50927477  0.58878301  1.0
  Ti  Ti3586  1  0.77351612  0.67594144  0.58878301  1.0
  Ti  Ti3587  1  0.77351612  0.84260811  0.58878301  1.0
  Ti  Ti3588  1  0.85684945  0.00927477  0.58878301  1.0
  Ti  Ti3589  1  0.85684945  0.17594144  0.58878301  1.0
  Ti  Ti3590  1  0.85684945  0.34260811  0.58878301  1.0
  Ti  Ti3591  1  0.85684945  0.50927477  0.58878301  1.0
  Ti  Ti3592  1  0.85684945  0.67594144  0.58878301  1.0
  Ti  Ti3593  1  0.85684945  0.84260811  0.58878301  1.0
  Ti  Ti3594  1  0.94018279  0.00927477  0.58878301  1.0
  Ti  Ti3595  1  0.94018279  0.17594144  0.58878301  1.0
  Ti  Ti3596  1  0.94018279  0.34260811  0.58878301  1.0
  Ti  Ti3597  1  0.94018279  0.50927477  0.58878301  1.0
  Ti  Ti3598  1  0.94018279  0.67594144  0.58878301  1.0
  Ti  Ti3599  1  0.94018279  0.84260811  0.58878301  1.0
  Ti  Ti3600  1  0.01080183  0.12154683  0.50135724  1.0
  Ti  Ti3601  1  0.01080183  0.28821350  0.50135724  1.0
  Ti  Ti3602  1  0.01080183  0.45488017  0.50135724  1.0
  Ti  Ti3603  1  0.01080183  0.62154683  0.50135724  1.0
  Ti  Ti3604  1  0.01080183  0.78821350  0.50135724  1.0
  Ti  Ti3605  1  0.01080183  0.95488017  0.50135724  1.0
  Ti  Ti3606  1  0.09413516  0.12154683  0.50135724  1.0
  Ti  Ti3607  1  0.09413516  0.28821350  0.50135724  1.0
  Ti  Ti3608  1  0.09413516  0.45488017  0.50135724  1.0
  Ti  Ti3609  1  0.09413516  0.62154683  0.50135724  1.0
  Ti  Ti3610  1  0.09413516  0.78821350  0.50135724  1.0
  Ti  Ti3611  1  0.09413516  0.95488017  0.50135724  1.0
  Ti  Ti3612  1  0.17746849  0.12154683  0.50135724  1.0
  Ti  Ti3613  1  0.17746849  0.28821350  0.50135724  1.0
  Ti  Ti3614  1  0.17746849  0.45488017  0.50135724  1.0
  Ti  Ti3615  1  0.17746849  0.62154683  0.50135724  1.0
  Ti  Ti3616  1  0.17746849  0.78821350  0.50135724  1.0
  Ti  Ti3617  1  0.17746849  0.95488017  0.50135724  1.0
  Ti  Ti3618  1  0.26080183  0.12154683  0.50135724  1.0
  Ti  Ti3619  1  0.26080183  0.28821350  0.50135724  1.0
  Ti  Ti3620  1  0.26080183  0.45488017  0.50135724  1.0
  Ti  Ti3621  1  0.26080183  0.62154683  0.50135724  1.0
  Ti  Ti3622  1  0.26080183  0.78821350  0.50135724  1.0
  Ti  Ti3623  1  0.26080183  0.95488017  0.50135724  1.0
  Ti  Ti3624  1  0.34413516  0.12154683  0.50135724  1.0
  Ti  Ti3625  1  0.34413516  0.28821350  0.50135724  1.0
  Ti  Ti3626  1  0.34413516  0.45488017  0.50135724  1.0
  Ti  Ti3627  1  0.34413516  0.62154683  0.50135724  1.0
  Ti  Ti3628  1  0.34413516  0.78821350  0.50135724  1.0
  Ti  Ti3629  1  0.34413516  0.95488017  0.50135724  1.0
  Ti  Ti3630  1  0.42746849  0.12154683  0.50135724  1.0
  Ti  Ti3631  1  0.42746849  0.28821350  0.50135724  1.0
  Ti  Ti3632  1  0.42746849  0.45488017  0.50135724  1.0
  Ti  Ti3633  1  0.42746849  0.62154683  0.50135724  1.0
  Ti  Ti3634  1  0.42746849  0.78821350  0.50135724  1.0
  Ti  Ti3635  1  0.42746849  0.95488017  0.50135724  1.0
  Ti  Ti3636  1  0.51080183  0.12154683  0.50135724  1.0
  Ti  Ti3637  1  0.51080183  0.28821350  0.50135724  1.0
  Ti  Ti3638  1  0.51080183  0.45488017  0.50135724  1.0
  Ti  Ti3639  1  0.51080183  0.62154683  0.50135724  1.0
  Ti  Ti3640  1  0.51080183  0.78821350  0.50135724  1.0
  Ti  Ti3641  1  0.51080183  0.95488017  0.50135724  1.0
  Ti  Ti3642  1  0.59413516  0.12154683  0.50135724  1.0
  Ti  Ti3643  1  0.59413516  0.28821350  0.50135724  1.0
  Ti  Ti3644  1  0.59413516  0.45488017  0.50135724  1.0
  Ti  Ti3645  1  0.59413516  0.62154683  0.50135724  1.0
  Ti  Ti3646  1  0.59413516  0.78821350  0.50135724  1.0
  Ti  Ti3647  1  0.59413516  0.95488017  0.50135724  1.0
  Ti  Ti3648  1  0.67746849  0.12154683  0.50135724  1.0
  Ti  Ti3649  1  0.67746849  0.28821350  0.50135724  1.0
  Ti  Ti3650  1  0.67746849  0.45488017  0.50135724  1.0
  Ti  Ti3651  1  0.67746849  0.62154683  0.50135724  1.0
  Ti  Ti3652  1  0.67746849  0.78821350  0.50135724  1.0
  Ti  Ti3653  1  0.67746849  0.95488017  0.50135724  1.0
  Ti  Ti3654  1  0.76080183  0.12154683  0.50135724  1.0
  Ti  Ti3655  1  0.76080183  0.28821350  0.50135724  1.0
  Ti  Ti3656  1  0.76080183  0.45488017  0.50135724  1.0
  Ti  Ti3657  1  0.76080183  0.62154683  0.50135724  1.0
  Ti  Ti3658  1  0.76080183  0.78821350  0.50135724  1.0
  Ti  Ti3659  1  0.76080183  0.95488017  0.50135724  1.0
  Ti  Ti3660  1  0.84413516  0.12154683  0.50135724  1.0
  Ti  Ti3661  1  0.84413516  0.28821350  0.50135724  1.0
  Ti  Ti3662  1  0.84413516  0.45488017  0.50135724  1.0
  Ti  Ti3663  1  0.84413516  0.62154683  0.50135724  1.0
  Ti  Ti3664  1  0.84413516  0.78821350  0.50135724  1.0
  Ti  Ti3665  1  0.84413516  0.95488017  0.50135724  1.0
  Ti  Ti3666  1  0.92746849  0.12154683  0.50135724  1.0
  Ti  Ti3667  1  0.92746849  0.28821350  0.50135724  1.0
  Ti  Ti3668  1  0.92746849  0.45488017  0.50135724  1.0
  Ti  Ti3669  1  0.92746849  0.62154683  0.50135724  1.0
  Ti  Ti3670  1  0.92746849  0.78821350  0.50135724  1.0
  Ti  Ti3671  1  0.92746849  0.95488017  0.50135724  1.0
  Ti  Ti3672  1  0.07032564  0.10964207  0.57278581  1.0
  Ti  Ti3673  1  0.07032564  0.27630874  0.57278581  1.0
  Ti  Ti3674  1  0.07032564  0.44297541  0.57278581  1.0
  Ti  Ti3675  1  0.07032564  0.60964207  0.57278581  1.0
  Ti  Ti3676  1  0.07032564  0.77630874  0.57278581  1.0
  Ti  Ti3677  1  0.07032564  0.94297541  0.57278581  1.0
  Ti  Ti3678  1  0.15365897  0.10964207  0.57278581  1.0
  Ti  Ti3679  1  0.15365897  0.27630874  0.57278581  1.0
  Ti  Ti3680  1  0.15365897  0.44297541  0.57278581  1.0
  Ti  Ti3681  1  0.15365897  0.60964207  0.57278581  1.0
  Ti  Ti3682  1  0.15365897  0.77630874  0.57278581  1.0
  Ti  Ti3683  1  0.15365897  0.94297541  0.57278581  1.0
  Ti  Ti3684  1  0.23699230  0.10964207  0.57278581  1.0
  Ti  Ti3685  1  0.23699230  0.27630874  0.57278581  1.0
  Ti  Ti3686  1  0.23699230  0.44297541  0.57278581  1.0
  Ti  Ti3687  1  0.23699230  0.60964207  0.57278581  1.0
  Ti  Ti3688  1  0.23699230  0.77630874  0.57278581  1.0
  Ti  Ti3689  1  0.23699230  0.94297541  0.57278581  1.0
  Ti  Ti3690  1  0.32032564  0.10964207  0.57278581  1.0
  Ti  Ti3691  1  0.32032564  0.27630874  0.57278581  1.0
  Ti  Ti3692  1  0.32032564  0.44297541  0.57278581  1.0
  Ti  Ti3693  1  0.32032564  0.60964207  0.57278581  1.0
  Ti  Ti3694  1  0.32032564  0.77630874  0.57278581  1.0
  Ti  Ti3695  1  0.32032564  0.94297541  0.57278581  1.0
  Ti  Ti3696  1  0.40365897  0.10964207  0.57278581  1.0
  Ti  Ti3697  1  0.40365897  0.27630874  0.57278581  1.0
  Ti  Ti3698  1  0.40365897  0.44297541  0.57278581  1.0
  Ti  Ti3699  1  0.40365897  0.60964207  0.57278581  1.0
  Ti  Ti3700  1  0.40365897  0.77630874  0.57278581  1.0
  Ti  Ti3701  1  0.40365897  0.94297541  0.57278581  1.0
  Ti  Ti3702  1  0.48699230  0.10964207  0.57278581  1.0
  Ti  Ti3703  1  0.48699230  0.27630874  0.57278581  1.0
  Ti  Ti3704  1  0.48699230  0.44297541  0.57278581  1.0
  Ti  Ti3705  1  0.48699230  0.60964207  0.57278581  1.0
  Ti  Ti3706  1  0.48699230  0.77630874  0.57278581  1.0
  Ti  Ti3707  1  0.48699230  0.94297541  0.57278581  1.0
  Ti  Ti3708  1  0.57032564  0.10964207  0.57278581  1.0
  Ti  Ti3709  1  0.57032564  0.27630874  0.57278581  1.0
  Ti  Ti3710  1  0.57032564  0.44297541  0.57278581  1.0
  Ti  Ti3711  1  0.57032564  0.60964207  0.57278581  1.0
  Ti  Ti3712  1  0.57032564  0.77630874  0.57278581  1.0
  Ti  Ti3713  1  0.57032564  0.94297541  0.57278581  1.0
  Ti  Ti3714  1  0.65365897  0.10964207  0.57278581  1.0
  Ti  Ti3715  1  0.65365897  0.27630874  0.57278581  1.0
  Ti  Ti3716  1  0.65365897  0.44297541  0.57278581  1.0
  Ti  Ti3717  1  0.65365897  0.60964207  0.57278581  1.0
  Ti  Ti3718  1  0.65365897  0.77630874  0.57278581  1.0
  Ti  Ti3719  1  0.65365897  0.94297541  0.57278581  1.0
  Ti  Ti3720  1  0.73699230  0.10964207  0.57278581  1.0
  Ti  Ti3721  1  0.73699230  0.27630874  0.57278581  1.0
  Ti  Ti3722  1  0.73699230  0.44297541  0.57278581  1.0
  Ti  Ti3723  1  0.73699230  0.60964207  0.57278581  1.0
  Ti  Ti3724  1  0.73699230  0.77630874  0.57278581  1.0
  Ti  Ti3725  1  0.73699230  0.94297541  0.57278581  1.0
  Ti  Ti3726  1  0.82032564  0.10964207  0.57278581  1.0
  Ti  Ti3727  1  0.82032564  0.27630874  0.57278581  1.0
  Ti  Ti3728  1  0.82032564  0.44297541  0.57278581  1.0
  Ti  Ti3729  1  0.82032564  0.60964207  0.57278581  1.0
  Ti  Ti3730  1  0.82032564  0.77630874  0.57278581  1.0
  Ti  Ti3731  1  0.82032564  0.94297541  0.57278581  1.0
  Ti  Ti3732  1  0.90365897  0.10964207  0.57278581  1.0
  Ti  Ti3733  1  0.90365897  0.27630874  0.57278581  1.0
  Ti  Ti3734  1  0.90365897  0.44297541  0.57278581  1.0
  Ti  Ti3735  1  0.90365897  0.60964207  0.57278581  1.0
  Ti  Ti3736  1  0.90365897  0.77630874  0.57278581  1.0
  Ti  Ti3737  1  0.90365897  0.94297541  0.57278581  1.0
  Ti  Ti3738  1  0.98699230  0.10964207  0.57278581  1.0
  Ti  Ti3739  1  0.98699230  0.27630874  0.57278581  1.0
  Ti  Ti3740  1  0.98699230  0.44297541  0.57278581  1.0
  Ti  Ti3741  1  0.98699230  0.60964207  0.57278581  1.0
  Ti  Ti3742  1  0.98699230  0.77630874  0.57278581  1.0
  Ti  Ti3743  1  0.98699230  0.94297541  0.57278581  1.0
  Ti  Ti3744  1  0.08254969  0.09102213  0.53422909  1.0
  Ti  Ti3745  1  0.08254969  0.25768879  0.53422909  1.0
  Ti  Ti3746  1  0.08254969  0.42435546  0.53422909  1.0
  Ti  Ti3747  1  0.08254969  0.59102213  0.53422909  1.0
  Ti  Ti3748  1  0.08254969  0.75768879  0.53422909  1.0
  Ti  Ti3749  1  0.08254969  0.92435546  0.53422909  1.0
  Ti  Ti3750  1  0.16588302  0.09102213  0.53422909  1.0
  Ti  Ti3751  1  0.16588302  0.25768879  0.53422909  1.0
  Ti  Ti3752  1  0.16588302  0.42435546  0.53422909  1.0
  Ti  Ti3753  1  0.16588302  0.59102213  0.53422909  1.0
  Ti  Ti3754  1  0.16588302  0.75768879  0.53422909  1.0
  Ti  Ti3755  1  0.16588302  0.92435546  0.53422909  1.0
  Ti  Ti3756  1  0.24921636  0.09102213  0.53422909  1.0
  Ti  Ti3757  1  0.24921636  0.25768879  0.53422909  1.0
  Ti  Ti3758  1  0.24921636  0.42435546  0.53422909  1.0
  Ti  Ti3759  1  0.24921636  0.59102213  0.53422909  1.0
  Ti  Ti3760  1  0.24921636  0.75768879  0.53422909  1.0
  Ti  Ti3761  1  0.24921636  0.92435546  0.53422909  1.0
  Ti  Ti3762  1  0.33254969  0.09102213  0.53422909  1.0
  Ti  Ti3763  1  0.33254969  0.25768879  0.53422909  1.0
  Ti  Ti3764  1  0.33254969  0.42435546  0.53422909  1.0
  Ti  Ti3765  1  0.33254969  0.59102213  0.53422909  1.0
  Ti  Ti3766  1  0.33254969  0.75768879  0.53422909  1.0
  Ti  Ti3767  1  0.33254969  0.92435546  0.53422909  1.0
  Ti  Ti3768  1  0.41588302  0.09102213  0.53422909  1.0
  Ti  Ti3769  1  0.41588302  0.25768879  0.53422909  1.0
  Ti  Ti3770  1  0.41588302  0.42435546  0.53422909  1.0
  Ti  Ti3771  1  0.41588302  0.59102213  0.53422909  1.0
  Ti  Ti3772  1  0.41588302  0.75768879  0.53422909  1.0
  Ti  Ti3773  1  0.41588302  0.92435546  0.53422909  1.0
  Ti  Ti3774  1  0.49921636  0.09102213  0.53422909  1.0
  Ti  Ti3775  1  0.49921636  0.25768879  0.53422909  1.0
  Ti  Ti3776  1  0.49921636  0.42435546  0.53422909  1.0
  Ti  Ti3777  1  0.49921636  0.59102213  0.53422909  1.0
  Ti  Ti3778  1  0.49921636  0.75768879  0.53422909  1.0
  Ti  Ti3779  1  0.49921636  0.92435546  0.53422909  1.0
  Ti  Ti3780  1  0.58254969  0.09102213  0.53422909  1.0
  Ti  Ti3781  1  0.58254969  0.25768879  0.53422909  1.0
  Ti  Ti3782  1  0.58254969  0.42435546  0.53422909  1.0
  Ti  Ti3783  1  0.58254969  0.59102213  0.53422909  1.0
  Ti  Ti3784  1  0.58254969  0.75768879  0.53422909  1.0
  Ti  Ti3785  1  0.58254969  0.92435546  0.53422909  1.0
  Ti  Ti3786  1  0.66588302  0.09102213  0.53422909  1.0
  Ti  Ti3787  1  0.66588302  0.25768879  0.53422909  1.0
  Ti  Ti3788  1  0.66588302  0.42435546  0.53422909  1.0
  Ti  Ti3789  1  0.66588302  0.59102213  0.53422909  1.0
  Ti  Ti3790  1  0.66588302  0.75768879  0.53422909  1.0
  Ti  Ti3791  1  0.66588302  0.92435546  0.53422909  1.0
  Ti  Ti3792  1  0.74921636  0.09102213  0.53422909  1.0
  Ti  Ti3793  1  0.74921636  0.25768879  0.53422909  1.0
  Ti  Ti3794  1  0.74921636  0.42435546  0.53422909  1.0
  Ti  Ti3795  1  0.74921636  0.59102213  0.53422909  1.0
  Ti  Ti3796  1  0.74921636  0.75768879  0.53422909  1.0
  Ti  Ti3797  1  0.74921636  0.92435546  0.53422909  1.0
  Ti  Ti3798  1  0.83254969  0.09102213  0.53422909  1.0
  Ti  Ti3799  1  0.83254969  0.25768879  0.53422909  1.0
  Ti  Ti3800  1  0.83254969  0.42435546  0.53422909  1.0
  Ti  Ti3801  1  0.83254969  0.59102213  0.53422909  1.0
  Ti  Ti3802  1  0.83254969  0.75768879  0.53422909  1.0
  Ti  Ti3803  1  0.83254969  0.92435546  0.53422909  1.0
  Ti  Ti3804  1  0.91588302  0.09102213  0.53422909  1.0
  Ti  Ti3805  1  0.91588302  0.25768879  0.53422909  1.0
  Ti  Ti3806  1  0.91588302  0.42435546  0.53422909  1.0
  Ti  Ti3807  1  0.91588302  0.59102213  0.53422909  1.0
  Ti  Ti3808  1  0.91588302  0.75768879  0.53422909  1.0
  Ti  Ti3809  1  0.91588302  0.92435546  0.53422909  1.0
  Ti  Ti3810  1  0.99921636  0.09102213  0.53422909  1.0
  Ti  Ti3811  1  0.99921636  0.25768879  0.53422909  1.0
  Ti  Ti3812  1  0.99921636  0.42435546  0.53422909  1.0
  Ti  Ti3813  1  0.99921636  0.59102213  0.53422909  1.0
  Ti  Ti3814  1  0.99921636  0.75768879  0.53422909  1.0
  Ti  Ti3815  1  0.99921636  0.92435546  0.53422909  1.0
  Ti  Ti3816  1  0.05874017  0.07911737  0.60565766  1.0
  Ti  Ti3817  1  0.05874017  0.24578403  0.60565766  1.0
  Ti  Ti3818  1  0.05874017  0.41245070  0.60565766  1.0
  Ti  Ti3819  1  0.05874017  0.57911737  0.60565766  1.0
  Ti  Ti3820  1  0.05874017  0.74578403  0.60565766  1.0
  Ti  Ti3821  1  0.05874017  0.91245070  0.60565766  1.0
  Ti  Ti3822  1  0.14207350  0.07911737  0.60565766  1.0
  Ti  Ti3823  1  0.14207350  0.24578403  0.60565766  1.0
  Ti  Ti3824  1  0.14207350  0.41245070  0.60565766  1.0
  Ti  Ti3825  1  0.14207350  0.57911737  0.60565766  1.0
  Ti  Ti3826  1  0.14207350  0.74578403  0.60565766  1.0
  Ti  Ti3827  1  0.14207350  0.91245070  0.60565766  1.0
  Ti  Ti3828  1  0.22540683  0.07911737  0.60565766  1.0
  Ti  Ti3829  1  0.22540683  0.24578403  0.60565766  1.0
  Ti  Ti3830  1  0.22540683  0.41245070  0.60565766  1.0
  Ti  Ti3831  1  0.22540683  0.57911737  0.60565766  1.0
  Ti  Ti3832  1  0.22540683  0.74578403  0.60565766  1.0
  Ti  Ti3833  1  0.22540683  0.91245070  0.60565766  1.0
  Ti  Ti3834  1  0.30874017  0.07911737  0.60565766  1.0
  Ti  Ti3835  1  0.30874017  0.24578403  0.60565766  1.0
  Ti  Ti3836  1  0.30874017  0.41245070  0.60565766  1.0
  Ti  Ti3837  1  0.30874017  0.57911737  0.60565766  1.0
  Ti  Ti3838  1  0.30874017  0.74578403  0.60565766  1.0
  Ti  Ti3839  1  0.30874017  0.91245070  0.60565766  1.0
  Ti  Ti3840  1  0.39207350  0.07911737  0.60565766  1.0
  Ti  Ti3841  1  0.39207350  0.24578403  0.60565766  1.0
  Ti  Ti3842  1  0.39207350  0.41245070  0.60565766  1.0
  Ti  Ti3843  1  0.39207350  0.57911737  0.60565766  1.0
  Ti  Ti3844  1  0.39207350  0.74578403  0.60565766  1.0
  Ti  Ti3845  1  0.39207350  0.91245070  0.60565766  1.0
  Ti  Ti3846  1  0.47540683  0.07911737  0.60565766  1.0
  Ti  Ti3847  1  0.47540683  0.24578403  0.60565766  1.0
  Ti  Ti3848  1  0.47540683  0.41245070  0.60565766  1.0
  Ti  Ti3849  1  0.47540683  0.57911737  0.60565766  1.0
  Ti  Ti3850  1  0.47540683  0.74578403  0.60565766  1.0
  Ti  Ti3851  1  0.47540683  0.91245070  0.60565766  1.0
  Ti  Ti3852  1  0.55874017  0.07911737  0.60565766  1.0
  Ti  Ti3853  1  0.55874017  0.24578403  0.60565766  1.0
  Ti  Ti3854  1  0.55874017  0.41245070  0.60565766  1.0
  Ti  Ti3855  1  0.55874017  0.57911737  0.60565766  1.0
  Ti  Ti3856  1  0.55874017  0.74578403  0.60565766  1.0
  Ti  Ti3857  1  0.55874017  0.91245070  0.60565766  1.0
  Ti  Ti3858  1  0.64207350  0.07911737  0.60565766  1.0
  Ti  Ti3859  1  0.64207350  0.24578403  0.60565766  1.0
  Ti  Ti3860  1  0.64207350  0.41245070  0.60565766  1.0
  Ti  Ti3861  1  0.64207350  0.57911737  0.60565766  1.0
  Ti  Ti3862  1  0.64207350  0.74578403  0.60565766  1.0
  Ti  Ti3863  1  0.64207350  0.91245070  0.60565766  1.0
  Ti  Ti3864  1  0.72540683  0.07911737  0.60565766  1.0
  Ti  Ti3865  1  0.72540683  0.24578403  0.60565766  1.0
  Ti  Ti3866  1  0.72540683  0.41245070  0.60565766  1.0
  Ti  Ti3867  1  0.72540683  0.57911737  0.60565766  1.0
  Ti  Ti3868  1  0.72540683  0.74578403  0.60565766  1.0
  Ti  Ti3869  1  0.72540683  0.91245070  0.60565766  1.0
  Ti  Ti3870  1  0.80874017  0.07911737  0.60565766  1.0
  Ti  Ti3871  1  0.80874017  0.24578403  0.60565766  1.0
  Ti  Ti3872  1  0.80874017  0.41245070  0.60565766  1.0
  Ti  Ti3873  1  0.80874017  0.57911737  0.60565766  1.0
  Ti  Ti3874  1  0.80874017  0.74578403  0.60565766  1.0
  Ti  Ti3875  1  0.80874017  0.91245070  0.60565766  1.0
  Ti  Ti3876  1  0.89207350  0.07911737  0.60565766  1.0
  Ti  Ti3877  1  0.89207350  0.24578403  0.60565766  1.0
  Ti  Ti3878  1  0.89207350  0.41245070  0.60565766  1.0
  Ti  Ti3879  1  0.89207350  0.57911737  0.60565766  1.0
  Ti  Ti3880  1  0.89207350  0.74578403  0.60565766  1.0
  Ti  Ti3881  1  0.89207350  0.91245070  0.60565766  1.0
  Ti  Ti3882  1  0.97540683  0.07911737  0.60565766  1.0
  Ti  Ti3883  1  0.97540683  0.24578403  0.60565766  1.0
  Ti  Ti3884  1  0.97540683  0.41245070  0.60565766  1.0
  Ti  Ti3885  1  0.97540683  0.57911737  0.60565766  1.0
  Ti  Ti3886  1  0.97540683  0.74578403  0.60565766  1.0
  Ti  Ti3887  1  0.97540683  0.91245070  0.60565766  1.0
  Ti  Ti3888  1  0.00130789  0.04100434  0.52297267  1.0
  Ti  Ti3889  1  0.00130789  0.20767101  0.52297267  1.0
  Ti  Ti3890  1  0.00130789  0.37433768  0.52297267  1.0
  Ti  Ti3891  1  0.00130789  0.54100434  0.52297267  1.0
  Ti  Ti3892  1  0.00130789  0.70767101  0.52297267  1.0
  Ti  Ti3893  1  0.00130789  0.87433768  0.52297267  1.0
  Ti  Ti3894  1  0.08464123  0.04100434  0.52297267  1.0
  Ti  Ti3895  1  0.08464123  0.20767101  0.52297267  1.0
  Ti  Ti3896  1  0.08464123  0.37433768  0.52297267  1.0
  Ti  Ti3897  1  0.08464123  0.54100434  0.52297267  1.0
  Ti  Ti3898  1  0.08464123  0.70767101  0.52297267  1.0
  Ti  Ti3899  1  0.08464123  0.87433768  0.52297267  1.0
  Ti  Ti3900  1  0.16797456  0.04100434  0.52297267  1.0
  Ti  Ti3901  1  0.16797456  0.20767101  0.52297267  1.0
  Ti  Ti3902  1  0.16797456  0.37433768  0.52297267  1.0
  Ti  Ti3903  1  0.16797456  0.54100434  0.52297267  1.0
  Ti  Ti3904  1  0.16797456  0.70767101  0.52297267  1.0
  Ti  Ti3905  1  0.16797456  0.87433768  0.52297267  1.0
  Ti  Ti3906  1  0.25130789  0.04100434  0.52297267  1.0
  Ti  Ti3907  1  0.25130789  0.20767101  0.52297267  1.0
  Ti  Ti3908  1  0.25130789  0.37433768  0.52297267  1.0
  Ti  Ti3909  1  0.25130789  0.54100434  0.52297267  1.0
  Ti  Ti3910  1  0.25130789  0.70767101  0.52297267  1.0
  Ti  Ti3911  1  0.25130789  0.87433768  0.52297267  1.0
  Ti  Ti3912  1  0.33464123  0.04100434  0.52297267  1.0
  Ti  Ti3913  1  0.33464123  0.20767101  0.52297267  1.0
  Ti  Ti3914  1  0.33464123  0.37433768  0.52297267  1.0
  Ti  Ti3915  1  0.33464123  0.54100434  0.52297267  1.0
  Ti  Ti3916  1  0.33464123  0.70767101  0.52297267  1.0
  Ti  Ti3917  1  0.33464123  0.87433768  0.52297267  1.0
  Ti  Ti3918  1  0.41797456  0.04100434  0.52297267  1.0
  Ti  Ti3919  1  0.41797456  0.20767101  0.52297267  1.0
  Ti  Ti3920  1  0.41797456  0.37433768  0.52297267  1.0
  Ti  Ti3921  1  0.41797456  0.54100434  0.52297267  1.0
  Ti  Ti3922  1  0.41797456  0.70767101  0.52297267  1.0
  Ti  Ti3923  1  0.41797456  0.87433768  0.52297267  1.0
  Ti  Ti3924  1  0.50130789  0.04100434  0.52297267  1.0
  Ti  Ti3925  1  0.50130789  0.20767101  0.52297267  1.0
  Ti  Ti3926  1  0.50130789  0.37433768  0.52297267  1.0
  Ti  Ti3927  1  0.50130789  0.54100434  0.52297267  1.0
  Ti  Ti3928  1  0.50130789  0.70767101  0.52297267  1.0
  Ti  Ti3929  1  0.50130789  0.87433768  0.52297267  1.0
  Ti  Ti3930  1  0.58464123  0.04100434  0.52297267  1.0
  Ti  Ti3931  1  0.58464123  0.20767101  0.52297267  1.0
  Ti  Ti3932  1  0.58464123  0.37433768  0.52297267  1.0
  Ti  Ti3933  1  0.58464123  0.54100434  0.52297267  1.0
  Ti  Ti3934  1  0.58464123  0.70767101  0.52297267  1.0
  Ti  Ti3935  1  0.58464123  0.87433768  0.52297267  1.0
  Ti  Ti3936  1  0.66797456  0.04100434  0.52297267  1.0
  Ti  Ti3937  1  0.66797456  0.20767101  0.52297267  1.0
  Ti  Ti3938  1  0.66797456  0.37433768  0.52297267  1.0
  Ti  Ti3939  1  0.66797456  0.54100434  0.52297267  1.0
  Ti  Ti3940  1  0.66797456  0.70767101  0.52297267  1.0
  Ti  Ti3941  1  0.66797456  0.87433768  0.52297267  1.0
  Ti  Ti3942  1  0.75130789  0.04100434  0.52297267  1.0
  Ti  Ti3943  1  0.75130789  0.20767101  0.52297267  1.0
  Ti  Ti3944  1  0.75130789  0.37433768  0.52297267  1.0
  Ti  Ti3945  1  0.75130789  0.54100434  0.52297267  1.0
  Ti  Ti3946  1  0.75130789  0.70767101  0.52297267  1.0
  Ti  Ti3947  1  0.75130789  0.87433768  0.52297267  1.0
  Ti  Ti3948  1  0.83464123  0.04100434  0.52297267  1.0
  Ti  Ti3949  1  0.83464123  0.20767101  0.52297267  1.0
  Ti  Ti3950  1  0.83464123  0.37433768  0.52297267  1.0
  Ti  Ti3951  1  0.83464123  0.54100434  0.52297267  1.0
  Ti  Ti3952  1  0.83464123  0.70767101  0.52297267  1.0
  Ti  Ti3953  1  0.83464123  0.87433768  0.52297267  1.0
  Ti  Ti3954  1  0.91797456  0.04100434  0.52297267  1.0
  Ti  Ti3955  1  0.91797456  0.20767101  0.52297267  1.0
  Ti  Ti3956  1  0.91797456  0.37433768  0.52297267  1.0
  Ti  Ti3957  1  0.91797456  0.54100434  0.52297267  1.0
  Ti  Ti3958  1  0.91797456  0.70767101  0.52297267  1.0
  Ti  Ti3959  1  0.91797456  0.87433768  0.52297267  1.0
  Ti  Ti3960  1  0.06083170  0.02909958  0.59440124  1.0
  Ti  Ti3961  1  0.06083170  0.19576625  0.59440124  1.0
  Ti  Ti3962  1  0.06083170  0.36243292  0.59440124  1.0
  Ti  Ti3963  1  0.06083170  0.52909958  0.59440124  1.0
  Ti  Ti3964  1  0.06083170  0.69576625  0.59440124  1.0
  Ti  Ti3965  1  0.06083170  0.86243292  0.59440124  1.0
  Ti  Ti3966  1  0.14416504  0.02909958  0.59440124  1.0
  Ti  Ti3967  1  0.14416504  0.19576625  0.59440124  1.0
  Ti  Ti3968  1  0.14416504  0.36243292  0.59440124  1.0
  Ti  Ti3969  1  0.14416504  0.52909958  0.59440124  1.0
  Ti  Ti3970  1  0.14416504  0.69576625  0.59440124  1.0
  Ti  Ti3971  1  0.14416504  0.86243292  0.59440124  1.0
  Ti  Ti3972  1  0.22749837  0.02909958  0.59440124  1.0
  Ti  Ti3973  1  0.22749837  0.19576625  0.59440124  1.0
  Ti  Ti3974  1  0.22749837  0.36243292  0.59440124  1.0
  Ti  Ti3975  1  0.22749837  0.52909958  0.59440124  1.0
  Ti  Ti3976  1  0.22749837  0.69576625  0.59440124  1.0
  Ti  Ti3977  1  0.22749837  0.86243292  0.59440124  1.0
  Ti  Ti3978  1  0.31083170  0.02909958  0.59440124  1.0
  Ti  Ti3979  1  0.31083170  0.19576625  0.59440124  1.0
  Ti  Ti3980  1  0.31083170  0.36243292  0.59440124  1.0
  Ti  Ti3981  1  0.31083170  0.52909958  0.59440124  1.0
  Ti  Ti3982  1  0.31083170  0.69576625  0.59440124  1.0
  Ti  Ti3983  1  0.31083170  0.86243292  0.59440124  1.0
  Ti  Ti3984  1  0.39416504  0.02909958  0.59440124  1.0
  Ti  Ti3985  1  0.39416504  0.19576625  0.59440124  1.0
  Ti  Ti3986  1  0.39416504  0.36243292  0.59440124  1.0
  Ti  Ti3987  1  0.39416504  0.52909958  0.59440124  1.0
  Ti  Ti3988  1  0.39416504  0.69576625  0.59440124  1.0
  Ti  Ti3989  1  0.39416504  0.86243292  0.59440124  1.0
  Ti  Ti3990  1  0.47749837  0.02909958  0.59440124  1.0
  Ti  Ti3991  1  0.47749837  0.19576625  0.59440124  1.0
  Ti  Ti3992  1  0.47749837  0.36243292  0.59440124  1.0
  Ti  Ti3993  1  0.47749837  0.52909958  0.59440124  1.0
  Ti  Ti3994  1  0.47749837  0.69576625  0.59440124  1.0
  Ti  Ti3995  1  0.47749837  0.86243292  0.59440124  1.0
  Ti  Ti3996  1  0.56083170  0.02909958  0.59440124  1.0
  Ti  Ti3997  1  0.56083170  0.19576625  0.59440124  1.0
  Ti  Ti3998  1  0.56083170  0.36243292  0.59440124  1.0
  Ti  Ti3999  1  0.56083170  0.52909958  0.59440124  1.0
  Ti  Ti4000  1  0.56083170  0.69576625  0.59440124  1.0
  Ti  Ti4001  1  0.56083170  0.86243292  0.59440124  1.0
  Ti  Ti4002  1  0.64416504  0.02909958  0.59440124  1.0
  Ti  Ti4003  1  0.64416504  0.19576625  0.59440124  1.0
  Ti  Ti4004  1  0.64416504  0.36243292  0.59440124  1.0
  Ti  Ti4005  1  0.64416504  0.52909958  0.59440124  1.0
  Ti  Ti4006  1  0.64416504  0.69576625  0.59440124  1.0
  Ti  Ti4007  1  0.64416504  0.86243292  0.59440124  1.0
  Ti  Ti4008  1  0.72749837  0.02909958  0.59440124  1.0
  Ti  Ti4009  1  0.72749837  0.19576625  0.59440124  1.0
  Ti  Ti4010  1  0.72749837  0.36243292  0.59440124  1.0
  Ti  Ti4011  1  0.72749837  0.52909958  0.59440124  1.0
  Ti  Ti4012  1  0.72749837  0.69576625  0.59440124  1.0
  Ti  Ti4013  1  0.72749837  0.86243292  0.59440124  1.0
  Ti  Ti4014  1  0.81083170  0.02909958  0.59440124  1.0
  Ti  Ti4015  1  0.81083170  0.19576625  0.59440124  1.0
  Ti  Ti4016  1  0.81083170  0.36243292  0.59440124  1.0
  Ti  Ti4017  1  0.81083170  0.52909958  0.59440124  1.0
  Ti  Ti4018  1  0.81083170  0.69576625  0.59440124  1.0
  Ti  Ti4019  1  0.81083170  0.86243292  0.59440124  1.0
  Ti  Ti4020  1  0.89416504  0.02909958  0.59440124  1.0
  Ti  Ti4021  1  0.89416504  0.19576625  0.59440124  1.0
  Ti  Ti4022  1  0.89416504  0.36243292  0.59440124  1.0
  Ti  Ti4023  1  0.89416504  0.52909958  0.59440124  1.0
  Ti  Ti4024  1  0.89416504  0.69576625  0.59440124  1.0
  Ti  Ti4025  1  0.89416504  0.86243292  0.59440124  1.0
  Ti  Ti4026  1  0.97749837  0.02909958  0.59440124  1.0
  Ti  Ti4027  1  0.97749837  0.19576625  0.59440124  1.0
  Ti  Ti4028  1  0.97749837  0.36243292  0.59440124  1.0
  Ti  Ti4029  1  0.97749837  0.52909958  0.59440124  1.0
  Ti  Ti4030  1  0.97749837  0.69576625  0.59440124  1.0
  Ti  Ti4031  1  0.97749837  0.86243292  0.59440124  1.0
  Ti  Ti4032  1  0.01200020  0.14672689  0.61928943  1.0
  Ti  Ti4033  1  0.01200020  0.31339355  0.61928943  1.0
  Ti  Ti4034  1  0.01200020  0.48006022  0.61928943  1.0
  Ti  Ti4035  1  0.01200020  0.64672689  0.61928943  1.0
  Ti  Ti4036  1  0.01200020  0.81339355  0.61928943  1.0
  Ti  Ti4037  1  0.01200020  0.98006022  0.61928943  1.0
  Ti  Ti4038  1  0.09533354  0.14672689  0.61928943  1.0
  Ti  Ti4039  1  0.09533354  0.31339355  0.61928943  1.0
  Ti  Ti4040  1  0.09533354  0.48006022  0.61928943  1.0
  Ti  Ti4041  1  0.09533354  0.64672689  0.61928943  1.0
  Ti  Ti4042  1  0.09533354  0.81339355  0.61928943  1.0
  Ti  Ti4043  1  0.09533354  0.98006022  0.61928943  1.0
  Ti  Ti4044  1  0.17866687  0.14672689  0.61928943  1.0
  Ti  Ti4045  1  0.17866687  0.31339355  0.61928943  1.0
  Ti  Ti4046  1  0.17866687  0.48006022  0.61928943  1.0
  Ti  Ti4047  1  0.17866687  0.64672689  0.61928943  1.0
  Ti  Ti4048  1  0.17866687  0.81339355  0.61928943  1.0
  Ti  Ti4049  1  0.17866687  0.98006022  0.61928943  1.0
  Ti  Ti4050  1  0.26200020  0.14672689  0.61928943  1.0
  Ti  Ti4051  1  0.26200020  0.31339355  0.61928943  1.0
  Ti  Ti4052  1  0.26200020  0.48006022  0.61928943  1.0
  Ti  Ti4053  1  0.26200020  0.64672689  0.61928943  1.0
  Ti  Ti4054  1  0.26200020  0.81339355  0.61928943  1.0
  Ti  Ti4055  1  0.26200020  0.98006022  0.61928943  1.0
  Ti  Ti4056  1  0.34533354  0.14672689  0.61928943  1.0
  Ti  Ti4057  1  0.34533354  0.31339355  0.61928943  1.0
  Ti  Ti4058  1  0.34533354  0.48006022  0.61928943  1.0
  Ti  Ti4059  1  0.34533354  0.64672689  0.61928943  1.0
  Ti  Ti4060  1  0.34533354  0.81339355  0.61928943  1.0
  Ti  Ti4061  1  0.34533354  0.98006022  0.61928943  1.0
  Ti  Ti4062  1  0.42866687  0.14672689  0.61928943  1.0
  Ti  Ti4063  1  0.42866687  0.31339355  0.61928943  1.0
  Ti  Ti4064  1  0.42866687  0.48006022  0.61928943  1.0
  Ti  Ti4065  1  0.42866687  0.64672689  0.61928943  1.0
  Ti  Ti4066  1  0.42866687  0.81339355  0.61928943  1.0
  Ti  Ti4067  1  0.42866687  0.98006022  0.61928943  1.0
  Ti  Ti4068  1  0.51200020  0.14672689  0.61928943  1.0
  Ti  Ti4069  1  0.51200020  0.31339355  0.61928943  1.0
  Ti  Ti4070  1  0.51200020  0.48006022  0.61928943  1.0
  Ti  Ti4071  1  0.51200020  0.64672689  0.61928943  1.0
  Ti  Ti4072  1  0.51200020  0.81339355  0.61928943  1.0
  Ti  Ti4073  1  0.51200020  0.98006022  0.61928943  1.0
  Ti  Ti4074  1  0.59533354  0.14672689  0.61928943  1.0
  Ti  Ti4075  1  0.59533354  0.31339355  0.61928943  1.0
  Ti  Ti4076  1  0.59533354  0.48006022  0.61928943  1.0
  Ti  Ti4077  1  0.59533354  0.64672689  0.61928943  1.0
  Ti  Ti4078  1  0.59533354  0.81339355  0.61928943  1.0
  Ti  Ti4079  1  0.59533354  0.98006022  0.61928943  1.0
  Ti  Ti4080  1  0.67866687  0.14672689  0.61928943  1.0
  Ti  Ti4081  1  0.67866687  0.31339355  0.61928943  1.0
  Ti  Ti4082  1  0.67866687  0.48006022  0.61928943  1.0
  Ti  Ti4083  1  0.67866687  0.64672689  0.61928943  1.0
  Ti  Ti4084  1  0.67866687  0.81339355  0.61928943  1.0
  Ti  Ti4085  1  0.67866687  0.98006022  0.61928943  1.0
  Ti  Ti4086  1  0.76200020  0.14672689  0.61928943  1.0
  Ti  Ti4087  1  0.76200020  0.31339355  0.61928943  1.0
  Ti  Ti4088  1  0.76200020  0.48006022  0.61928943  1.0
  Ti  Ti4089  1  0.76200020  0.64672689  0.61928943  1.0
  Ti  Ti4090  1  0.76200020  0.81339355  0.61928943  1.0
  Ti  Ti4091  1  0.76200020  0.98006022  0.61928943  1.0
  Ti  Ti4092  1  0.84533354  0.14672689  0.61928943  1.0
  Ti  Ti4093  1  0.84533354  0.31339355  0.61928943  1.0
  Ti  Ti4094  1  0.84533354  0.48006022  0.61928943  1.0
  Ti  Ti4095  1  0.84533354  0.64672689  0.61928943  1.0
  Ti  Ti4096  1  0.84533354  0.81339355  0.61928943  1.0
  Ti  Ti4097  1  0.84533354  0.98006022  0.61928943  1.0
  Ti  Ti4098  1  0.92866687  0.14672689  0.61928943  1.0
  Ti  Ti4099  1  0.92866687  0.31339355  0.61928943  1.0
  Ti  Ti4100  1  0.92866687  0.48006022  0.61928943  1.0
  Ti  Ti4101  1  0.92866687  0.64672689  0.61928943  1.0
  Ti  Ti4102  1  0.92866687  0.81339355  0.61928943  1.0
  Ti  Ti4103  1  0.92866687  0.98006022  0.61928943  1.0
  Ti  Ti4104  1  0.03580973  0.15863165  0.54786086  1.0
  Ti  Ti4105  1  0.03580973  0.32529832  0.54786086  1.0
  Ti  Ti4106  1  0.03580973  0.49196498  0.54786086  1.0
  Ti  Ti4107  1  0.03580973  0.65863165  0.54786086  1.0
  Ti  Ti4108  1  0.03580973  0.82529832  0.54786086  1.0
  Ti  Ti4109  1  0.03580973  0.99196498  0.54786086  1.0
  Ti  Ti4110  1  0.11914306  0.15863165  0.54786086  1.0
  Ti  Ti4111  1  0.11914306  0.32529832  0.54786086  1.0
  Ti  Ti4112  1  0.11914306  0.49196498  0.54786086  1.0
  Ti  Ti4113  1  0.11914306  0.65863165  0.54786086  1.0
  Ti  Ti4114  1  0.11914306  0.82529832  0.54786086  1.0
  Ti  Ti4115  1  0.11914306  0.99196498  0.54786086  1.0
  Ti  Ti4116  1  0.20247639  0.15863165  0.54786086  1.0
  Ti  Ti4117  1  0.20247639  0.32529832  0.54786086  1.0
  Ti  Ti4118  1  0.20247639  0.49196498  0.54786086  1.0
  Ti  Ti4119  1  0.20247639  0.65863165  0.54786086  1.0
  Ti  Ti4120  1  0.20247639  0.82529832  0.54786086  1.0
  Ti  Ti4121  1  0.20247639  0.99196498  0.54786086  1.0
  Ti  Ti4122  1  0.28580973  0.15863165  0.54786086  1.0
  Ti  Ti4123  1  0.28580973  0.32529832  0.54786086  1.0
  Ti  Ti4124  1  0.28580973  0.49196498  0.54786086  1.0
  Ti  Ti4125  1  0.28580973  0.65863165  0.54786086  1.0
  Ti  Ti4126  1  0.28580973  0.82529832  0.54786086  1.0
  Ti  Ti4127  1  0.28580973  0.99196498  0.54786086  1.0
  Ti  Ti4128  1  0.36914306  0.15863165  0.54786086  1.0
  Ti  Ti4129  1  0.36914306  0.32529832  0.54786086  1.0
  Ti  Ti4130  1  0.36914306  0.49196498  0.54786086  1.0
  Ti  Ti4131  1  0.36914306  0.65863165  0.54786086  1.0
  Ti  Ti4132  1  0.36914306  0.82529832  0.54786086  1.0
  Ti  Ti4133  1  0.36914306  0.99196498  0.54786086  1.0
  Ti  Ti4134  1  0.45247639  0.15863165  0.54786086  1.0
  Ti  Ti4135  1  0.45247639  0.32529832  0.54786086  1.0
  Ti  Ti4136  1  0.45247639  0.49196498  0.54786086  1.0
  Ti  Ti4137  1  0.45247639  0.65863165  0.54786086  1.0
  Ti  Ti4138  1  0.45247639  0.82529832  0.54786086  1.0
  Ti  Ti4139  1  0.45247639  0.99196498  0.54786086  1.0
  Ti  Ti4140  1  0.53580973  0.15863165  0.54786086  1.0
  Ti  Ti4141  1  0.53580973  0.32529832  0.54786086  1.0
  Ti  Ti4142  1  0.53580973  0.49196498  0.54786086  1.0
  Ti  Ti4143  1  0.53580973  0.65863165  0.54786086  1.0
  Ti  Ti4144  1  0.53580973  0.82529832  0.54786086  1.0
  Ti  Ti4145  1  0.53580973  0.99196498  0.54786086  1.0
  Ti  Ti4146  1  0.61914306  0.15863165  0.54786086  1.0
  Ti  Ti4147  1  0.61914306  0.32529832  0.54786086  1.0
  Ti  Ti4148  1  0.61914306  0.49196498  0.54786086  1.0
  Ti  Ti4149  1  0.61914306  0.65863165  0.54786086  1.0
  Ti  Ti4150  1  0.61914306  0.82529832  0.54786086  1.0
  Ti  Ti4151  1  0.61914306  0.99196498  0.54786086  1.0
  Ti  Ti4152  1  0.70247639  0.15863165  0.54786086  1.0
  Ti  Ti4153  1  0.70247639  0.32529832  0.54786086  1.0
  Ti  Ti4154  1  0.70247639  0.49196498  0.54786086  1.0
  Ti  Ti4155  1  0.70247639  0.65863165  0.54786086  1.0
  Ti  Ti4156  1  0.70247639  0.82529832  0.54786086  1.0
  Ti  Ti4157  1  0.70247639  0.99196498  0.54786086  1.0
  Ti  Ti4158  1  0.78580973  0.15863165  0.54786086  1.0
  Ti  Ti4159  1  0.78580973  0.32529832  0.54786086  1.0
  Ti  Ti4160  1  0.78580973  0.49196498  0.54786086  1.0
  Ti  Ti4161  1  0.78580973  0.65863165  0.54786086  1.0
  Ti  Ti4162  1  0.78580973  0.82529832  0.54786086  1.0
  Ti  Ti4163  1  0.78580973  0.99196498  0.54786086  1.0
  Ti  Ti4164  1  0.86914306  0.15863165  0.54786086  1.0
  Ti  Ti4165  1  0.86914306  0.32529832  0.54786086  1.0
  Ti  Ti4166  1  0.86914306  0.49196498  0.54786086  1.0
  Ti  Ti4167  1  0.86914306  0.65863165  0.54786086  1.0
  Ti  Ti4168  1  0.86914306  0.82529832  0.54786086  1.0
  Ti  Ti4169  1  0.86914306  0.99196498  0.54786086  1.0
  Ti  Ti4170  1  0.95247639  0.15863165  0.54786086  1.0
  Ti  Ti4171  1  0.95247639  0.32529832  0.54786086  1.0
  Ti  Ti4172  1  0.95247639  0.49196498  0.54786086  1.0
  Ti  Ti4173  1  0.95247639  0.65863165  0.54786086  1.0
  Ti  Ti4174  1  0.95247639  0.82529832  0.54786086  1.0
  Ti  Ti4175  1  0.95247639  0.99196498  0.54786086  1.0
  Ti  Ti4176  1  0.00501077  0.07131123  0.63868246  1.0
  Ti  Ti4177  1  0.00501077  0.23797790  0.63868246  1.0
  Ti  Ti4178  1  0.00501077  0.40464457  0.63868246  1.0
  Ti  Ti4179  1  0.00501077  0.57131123  0.63868246  1.0
  Ti  Ti4180  1  0.00501077  0.73797790  0.63868246  1.0
  Ti  Ti4181  1  0.00501077  0.90464457  0.63868246  1.0
  Ti  Ti4182  1  0.08834411  0.07131123  0.63868246  1.0
  Ti  Ti4183  1  0.08834411  0.23797790  0.63868246  1.0
  Ti  Ti4184  1  0.08834411  0.40464457  0.63868246  1.0
  Ti  Ti4185  1  0.08834411  0.57131123  0.63868246  1.0
  Ti  Ti4186  1  0.08834411  0.73797790  0.63868246  1.0
  Ti  Ti4187  1  0.08834411  0.90464457  0.63868246  1.0
  Ti  Ti4188  1  0.17167744  0.07131123  0.63868246  1.0
  Ti  Ti4189  1  0.17167744  0.23797790  0.63868246  1.0
  Ti  Ti4190  1  0.17167744  0.40464457  0.63868246  1.0
  Ti  Ti4191  1  0.17167744  0.57131123  0.63868246  1.0
  Ti  Ti4192  1  0.17167744  0.73797790  0.63868246  1.0
  Ti  Ti4193  1  0.17167744  0.90464457  0.63868246  1.0
  Ti  Ti4194  1  0.25501077  0.07131123  0.63868246  1.0
  Ti  Ti4195  1  0.25501077  0.23797790  0.63868246  1.0
  Ti  Ti4196  1  0.25501077  0.40464457  0.63868246  1.0
  Ti  Ti4197  1  0.25501077  0.57131123  0.63868246  1.0
  Ti  Ti4198  1  0.25501077  0.73797790  0.63868246  1.0
  Ti  Ti4199  1  0.25501077  0.90464457  0.63868246  1.0
  Ti  Ti4200  1  0.33834411  0.07131123  0.63868246  1.0
  Ti  Ti4201  1  0.33834411  0.23797790  0.63868246  1.0
  Ti  Ti4202  1  0.33834411  0.40464457  0.63868246  1.0
  Ti  Ti4203  1  0.33834411  0.57131123  0.63868246  1.0
  Ti  Ti4204  1  0.33834411  0.73797790  0.63868246  1.0
  Ti  Ti4205  1  0.33834411  0.90464457  0.63868246  1.0
  Ti  Ti4206  1  0.42167744  0.07131123  0.63868246  1.0
  Ti  Ti4207  1  0.42167744  0.23797790  0.63868246  1.0
  Ti  Ti4208  1  0.42167744  0.40464457  0.63868246  1.0
  Ti  Ti4209  1  0.42167744  0.57131123  0.63868246  1.0
  Ti  Ti4210  1  0.42167744  0.73797790  0.63868246  1.0
  Ti  Ti4211  1  0.42167744  0.90464457  0.63868246  1.0
  Ti  Ti4212  1  0.50501077  0.07131123  0.63868246  1.0
  Ti  Ti4213  1  0.50501077  0.23797790  0.63868246  1.0
  Ti  Ti4214  1  0.50501077  0.40464457  0.63868246  1.0
  Ti  Ti4215  1  0.50501077  0.57131123  0.63868246  1.0
  Ti  Ti4216  1  0.50501077  0.73797790  0.63868246  1.0
  Ti  Ti4217  1  0.50501077  0.90464457  0.63868246  1.0
  Ti  Ti4218  1  0.58834411  0.07131123  0.63868246  1.0
  Ti  Ti4219  1  0.58834411  0.23797790  0.63868246  1.0
  Ti  Ti4220  1  0.58834411  0.40464457  0.63868246  1.0
  Ti  Ti4221  1  0.58834411  0.57131123  0.63868246  1.0
  Ti  Ti4222  1  0.58834411  0.73797790  0.63868246  1.0
  Ti  Ti4223  1  0.58834411  0.90464457  0.63868246  1.0
  Ti  Ti4224  1  0.67167744  0.07131123  0.63868246  1.0
  Ti  Ti4225  1  0.67167744  0.23797790  0.63868246  1.0
  Ti  Ti4226  1  0.67167744  0.40464457  0.63868246  1.0
  Ti  Ti4227  1  0.67167744  0.57131123  0.63868246  1.0
  Ti  Ti4228  1  0.67167744  0.73797790  0.63868246  1.0
  Ti  Ti4229  1  0.67167744  0.90464457  0.63868246  1.0
  Ti  Ti4230  1  0.75501077  0.07131123  0.63868246  1.0
  Ti  Ti4231  1  0.75501077  0.23797790  0.63868246  1.0
  Ti  Ti4232  1  0.75501077  0.40464457  0.63868246  1.0
  Ti  Ti4233  1  0.75501077  0.57131123  0.63868246  1.0
  Ti  Ti4234  1  0.75501077  0.73797790  0.63868246  1.0
  Ti  Ti4235  1  0.75501077  0.90464457  0.63868246  1.0
  Ti  Ti4236  1  0.83834411  0.07131123  0.63868246  1.0
  Ti  Ti4237  1  0.83834411  0.23797790  0.63868246  1.0
  Ti  Ti4238  1  0.83834411  0.40464457  0.63868246  1.0
  Ti  Ti4239  1  0.83834411  0.57131123  0.63868246  1.0
  Ti  Ti4240  1  0.83834411  0.73797790  0.63868246  1.0
  Ti  Ti4241  1  0.83834411  0.90464457  0.63868246  1.0
  Ti  Ti4242  1  0.92167744  0.07131123  0.63868246  1.0
  Ti  Ti4243  1  0.92167744  0.23797790  0.63868246  1.0
  Ti  Ti4244  1  0.92167744  0.40464457  0.63868246  1.0
  Ti  Ti4245  1  0.92167744  0.57131123  0.63868246  1.0
  Ti  Ti4246  1  0.92167744  0.73797790  0.63868246  1.0
  Ti  Ti4247  1  0.92167744  0.90464457  0.63868246  1.0
  Ti  Ti4248  1  0.02882030  0.08321600  0.56725388  1.0
  Ti  Ti4249  1  0.02882030  0.24988266  0.56725388  1.0
  Ti  Ti4250  1  0.02882030  0.41654933  0.56725388  1.0
  Ti  Ti4251  1  0.02882030  0.58321600  0.56725388  1.0
  Ti  Ti4252  1  0.02882030  0.74988266  0.56725388  1.0
  Ti  Ti4253  1  0.02882030  0.91654933  0.56725388  1.0
  Ti  Ti4254  1  0.11215363  0.08321600  0.56725388  1.0
  Ti  Ti4255  1  0.11215363  0.24988266  0.56725388  1.0
  Ti  Ti4256  1  0.11215363  0.41654933  0.56725388  1.0
  Ti  Ti4257  1  0.11215363  0.58321600  0.56725388  1.0
  Ti  Ti4258  1  0.11215363  0.74988266  0.56725388  1.0
  Ti  Ti4259  1  0.11215363  0.91654933  0.56725388  1.0
  Ti  Ti4260  1  0.19548697  0.08321600  0.56725388  1.0
  Ti  Ti4261  1  0.19548697  0.24988266  0.56725388  1.0
  Ti  Ti4262  1  0.19548697  0.41654933  0.56725388  1.0
  Ti  Ti4263  1  0.19548697  0.58321600  0.56725388  1.0
  Ti  Ti4264  1  0.19548697  0.74988266  0.56725388  1.0
  Ti  Ti4265  1  0.19548697  0.91654933  0.56725388  1.0
  Ti  Ti4266  1  0.27882030  0.08321600  0.56725388  1.0
  Ti  Ti4267  1  0.27882030  0.24988266  0.56725388  1.0
  Ti  Ti4268  1  0.27882030  0.41654933  0.56725388  1.0
  Ti  Ti4269  1  0.27882030  0.58321600  0.56725388  1.0
  Ti  Ti4270  1  0.27882030  0.74988266  0.56725388  1.0
  Ti  Ti4271  1  0.27882030  0.91654933  0.56725388  1.0
  Ti  Ti4272  1  0.36215363  0.08321600  0.56725388  1.0
  Ti  Ti4273  1  0.36215363  0.24988266  0.56725388  1.0
  Ti  Ti4274  1  0.36215363  0.41654933  0.56725388  1.0
  Ti  Ti4275  1  0.36215363  0.58321600  0.56725388  1.0
  Ti  Ti4276  1  0.36215363  0.74988266  0.56725388  1.0
  Ti  Ti4277  1  0.36215363  0.91654933  0.56725388  1.0
  Ti  Ti4278  1  0.44548697  0.08321600  0.56725388  1.0
  Ti  Ti4279  1  0.44548697  0.24988266  0.56725388  1.0
  Ti  Ti4280  1  0.44548697  0.41654933  0.56725388  1.0
  Ti  Ti4281  1  0.44548697  0.58321600  0.56725388  1.0
  Ti  Ti4282  1  0.44548697  0.74988266  0.56725388  1.0
  Ti  Ti4283  1  0.44548697  0.91654933  0.56725388  1.0
  Ti  Ti4284  1  0.52882030  0.08321600  0.56725388  1.0
  Ti  Ti4285  1  0.52882030  0.24988266  0.56725388  1.0
  Ti  Ti4286  1  0.52882030  0.41654933  0.56725388  1.0
  Ti  Ti4287  1  0.52882030  0.58321600  0.56725388  1.0
  Ti  Ti4288  1  0.52882030  0.74988266  0.56725388  1.0
  Ti  Ti4289  1  0.52882030  0.91654933  0.56725388  1.0
  Ti  Ti4290  1  0.61215363  0.08321600  0.56725388  1.0
  Ti  Ti4291  1  0.61215363  0.24988266  0.56725388  1.0
  Ti  Ti4292  1  0.61215363  0.41654933  0.56725388  1.0
  Ti  Ti4293  1  0.61215363  0.58321600  0.56725388  1.0
  Ti  Ti4294  1  0.61215363  0.74988266  0.56725388  1.0
  Ti  Ti4295  1  0.61215363  0.91654933  0.56725388  1.0
  Ti  Ti4296  1  0.69548697  0.08321600  0.56725388  1.0
  Ti  Ti4297  1  0.69548697  0.24988266  0.56725388  1.0
  Ti  Ti4298  1  0.69548697  0.41654933  0.56725388  1.0
  Ti  Ti4299  1  0.69548697  0.58321600  0.56725388  1.0
  Ti  Ti4300  1  0.69548697  0.74988266  0.56725388  1.0
  Ti  Ti4301  1  0.69548697  0.91654933  0.56725388  1.0
  Ti  Ti4302  1  0.77882030  0.08321600  0.56725388  1.0
  Ti  Ti4303  1  0.77882030  0.24988266  0.56725388  1.0
  Ti  Ti4304  1  0.77882030  0.41654933  0.56725388  1.0
  Ti  Ti4305  1  0.77882030  0.58321600  0.56725388  1.0
  Ti  Ti4306  1  0.77882030  0.74988266  0.56725388  1.0
  Ti  Ti4307  1  0.77882030  0.91654933  0.56725388  1.0
  Ti  Ti4308  1  0.86215363  0.08321600  0.56725388  1.0
  Ti  Ti4309  1  0.86215363  0.24988266  0.56725388  1.0
  Ti  Ti4310  1  0.86215363  0.41654933  0.56725388  1.0
  Ti  Ti4311  1  0.86215363  0.58321600  0.56725388  1.0
  Ti  Ti4312  1  0.86215363  0.74988266  0.56725388  1.0
  Ti  Ti4313  1  0.86215363  0.91654933  0.56725388  1.0
  Ti  Ti4314  1  0.94548697  0.08321600  0.56725388  1.0
  Ti  Ti4315  1  0.94548697  0.24988266  0.56725388  1.0
  Ti  Ti4316  1  0.94548697  0.41654933  0.56725388  1.0
  Ti  Ti4317  1  0.94548697  0.58321600  0.56725388  1.0
  Ti  Ti4318  1  0.94548697  0.74988266  0.56725388  1.0
  Ti  Ti4319  1  0.94548697  0.91654933  0.56725388  1.0
  Ti  Ti4320  1  0.05180938  0.00377658  0.62298373  1.0
  Ti  Ti4321  1  0.05180938  0.17044324  0.62298373  1.0
  Ti  Ti4322  1  0.05180938  0.33710991  0.62298373  1.0
  Ti  Ti4323  1  0.05180938  0.50377658  0.62298373  1.0
  Ti  Ti4324  1  0.05180938  0.67044324  0.62298373  1.0
  Ti  Ti4325  1  0.05180938  0.83710991  0.62298373  1.0
  Ti  Ti4326  1  0.13514272  0.00377658  0.62298373  1.0
  Ti  Ti4327  1  0.13514272  0.17044324  0.62298373  1.0
  Ti  Ti4328  1  0.13514272  0.33710991  0.62298373  1.0
  Ti  Ti4329  1  0.13514272  0.50377658  0.62298373  1.0
  Ti  Ti4330  1  0.13514272  0.67044324  0.62298373  1.0
  Ti  Ti4331  1  0.13514272  0.83710991  0.62298373  1.0
  Ti  Ti4332  1  0.21847605  0.00377658  0.62298373  1.0
  Ti  Ti4333  1  0.21847605  0.17044324  0.62298373  1.0
  Ti  Ti4334  1  0.21847605  0.33710991  0.62298373  1.0
  Ti  Ti4335  1  0.21847605  0.50377658  0.62298373  1.0
  Ti  Ti4336  1  0.21847605  0.67044324  0.62298373  1.0
  Ti  Ti4337  1  0.21847605  0.83710991  0.62298373  1.0
  Ti  Ti4338  1  0.30180938  0.00377658  0.62298373  1.0
  Ti  Ti4339  1  0.30180938  0.17044324  0.62298373  1.0
  Ti  Ti4340  1  0.30180938  0.33710991  0.62298373  1.0
  Ti  Ti4341  1  0.30180938  0.50377658  0.62298373  1.0
  Ti  Ti4342  1  0.30180938  0.67044324  0.62298373  1.0
  Ti  Ti4343  1  0.30180938  0.83710991  0.62298373  1.0
  Ti  Ti4344  1  0.38514272  0.00377658  0.62298373  1.0
  Ti  Ti4345  1  0.38514272  0.17044324  0.62298373  1.0
  Ti  Ti4346  1  0.38514272  0.33710991  0.62298373  1.0
  Ti  Ti4347  1  0.38514272  0.50377658  0.62298373  1.0
  Ti  Ti4348  1  0.38514272  0.67044324  0.62298373  1.0
  Ti  Ti4349  1  0.38514272  0.83710991  0.62298373  1.0
  Ti  Ti4350  1  0.46847605  0.00377658  0.62298373  1.0
  Ti  Ti4351  1  0.46847605  0.17044324  0.62298373  1.0
  Ti  Ti4352  1  0.46847605  0.33710991  0.62298373  1.0
  Ti  Ti4353  1  0.46847605  0.50377658  0.62298373  1.0
  Ti  Ti4354  1  0.46847605  0.67044324  0.62298373  1.0
  Ti  Ti4355  1  0.46847605  0.83710991  0.62298373  1.0
  Ti  Ti4356  1  0.55180938  0.00377658  0.62298373  1.0
  Ti  Ti4357  1  0.55180938  0.17044324  0.62298373  1.0
  Ti  Ti4358  1  0.55180938  0.33710991  0.62298373  1.0
  Ti  Ti4359  1  0.55180938  0.50377658  0.62298373  1.0
  Ti  Ti4360  1  0.55180938  0.67044324  0.62298373  1.0
  Ti  Ti4361  1  0.55180938  0.83710991  0.62298373  1.0
  Ti  Ti4362  1  0.63514272  0.00377658  0.62298373  1.0
  Ti  Ti4363  1  0.63514272  0.17044324  0.62298373  1.0
  Ti  Ti4364  1  0.63514272  0.33710991  0.62298373  1.0
  Ti  Ti4365  1  0.63514272  0.50377658  0.62298373  1.0
  Ti  Ti4366  1  0.63514272  0.67044324  0.62298373  1.0
  Ti  Ti4367  1  0.63514272  0.83710991  0.62298373  1.0
  Ti  Ti4368  1  0.71847605  0.00377658  0.62298373  1.0
  Ti  Ti4369  1  0.71847605  0.17044324  0.62298373  1.0
  Ti  Ti4370  1  0.71847605  0.33710991  0.62298373  1.0
  Ti  Ti4371  1  0.71847605  0.50377658  0.62298373  1.0
  Ti  Ti4372  1  0.71847605  0.67044324  0.62298373  1.0
  Ti  Ti4373  1  0.71847605  0.83710991  0.62298373  1.0
  Ti  Ti4374  1  0.80180938  0.00377658  0.62298373  1.0
  Ti  Ti4375  1  0.80180938  0.17044324  0.62298373  1.0
  Ti  Ti4376  1  0.80180938  0.33710991  0.62298373  1.0
  Ti  Ti4377  1  0.80180938  0.50377658  0.62298373  1.0
  Ti  Ti4378  1  0.80180938  0.67044324  0.62298373  1.0
  Ti  Ti4379  1  0.80180938  0.83710991  0.62298373  1.0
  Ti  Ti4380  1  0.88514272  0.00377658  0.62298373  1.0
  Ti  Ti4381  1  0.88514272  0.17044324  0.62298373  1.0
  Ti  Ti4382  1  0.88514272  0.33710991  0.62298373  1.0
  Ti  Ti4383  1  0.88514272  0.50377658  0.62298373  1.0
  Ti  Ti4384  1  0.88514272  0.67044324  0.62298373  1.0
  Ti  Ti4385  1  0.88514272  0.83710991  0.62298373  1.0
  Ti  Ti4386  1  0.96847605  0.00377658  0.62298373  1.0
  Ti  Ti4387  1  0.96847605  0.17044324  0.62298373  1.0
  Ti  Ti4388  1  0.96847605  0.33710991  0.62298373  1.0
  Ti  Ti4389  1  0.96847605  0.50377658  0.62298373  1.0
  Ti  Ti4390  1  0.96847605  0.67044324  0.62298373  1.0
  Ti  Ti4391  1  0.96847605  0.83710991  0.62298373  1.0
  Ti  Ti4392  1  0.07561891  0.01568134  0.55155516  1.0
  Ti  Ti4393  1  0.07561891  0.18234801  0.55155516  1.0
  Ti  Ti4394  1  0.07561891  0.34901467  0.55155516  1.0
  Ti  Ti4395  1  0.07561891  0.51568134  0.55155516  1.0
  Ti  Ti4396  1  0.07561891  0.68234801  0.55155516  1.0
  Ti  Ti4397  1  0.07561891  0.84901467  0.55155516  1.0
  Ti  Ti4398  1  0.15895224  0.01568134  0.55155516  1.0
  Ti  Ti4399  1  0.15895224  0.18234801  0.55155516  1.0
  Ti  Ti4400  1  0.15895224  0.34901467  0.55155516  1.0
  Ti  Ti4401  1  0.15895224  0.51568134  0.55155516  1.0
  Ti  Ti4402  1  0.15895224  0.68234801  0.55155516  1.0
  Ti  Ti4403  1  0.15895224  0.84901467  0.55155516  1.0
  Ti  Ti4404  1  0.24228557  0.01568134  0.55155516  1.0
  Ti  Ti4405  1  0.24228557  0.18234801  0.55155516  1.0
  Ti  Ti4406  1  0.24228557  0.34901467  0.55155516  1.0
  Ti  Ti4407  1  0.24228557  0.51568134  0.55155516  1.0
  Ti  Ti4408  1  0.24228557  0.68234801  0.55155516  1.0
  Ti  Ti4409  1  0.24228557  0.84901467  0.55155516  1.0
  Ti  Ti4410  1  0.32561891  0.01568134  0.55155516  1.0
  Ti  Ti4411  1  0.32561891  0.18234801  0.55155516  1.0
  Ti  Ti4412  1  0.32561891  0.34901467  0.55155516  1.0
  Ti  Ti4413  1  0.32561891  0.51568134  0.55155516  1.0
  Ti  Ti4414  1  0.32561891  0.68234801  0.55155516  1.0
  Ti  Ti4415  1  0.32561891  0.84901467  0.55155516  1.0
  Ti  Ti4416  1  0.40895224  0.01568134  0.55155516  1.0
  Ti  Ti4417  1  0.40895224  0.18234801  0.55155516  1.0
  Ti  Ti4418  1  0.40895224  0.34901467  0.55155516  1.0
  Ti  Ti4419  1  0.40895224  0.51568134  0.55155516  1.0
  Ti  Ti4420  1  0.40895224  0.68234801  0.55155516  1.0
  Ti  Ti4421  1  0.40895224  0.84901467  0.55155516  1.0
  Ti  Ti4422  1  0.49228557  0.01568134  0.55155516  1.0
  Ti  Ti4423  1  0.49228557  0.18234801  0.55155516  1.0
  Ti  Ti4424  1  0.49228557  0.34901467  0.55155516  1.0
  Ti  Ti4425  1  0.49228557  0.51568134  0.55155516  1.0
  Ti  Ti4426  1  0.49228557  0.68234801  0.55155516  1.0
  Ti  Ti4427  1  0.49228557  0.84901467  0.55155516  1.0
  Ti  Ti4428  1  0.57561891  0.01568134  0.55155516  1.0
  Ti  Ti4429  1  0.57561891  0.18234801  0.55155516  1.0
  Ti  Ti4430  1  0.57561891  0.34901467  0.55155516  1.0
  Ti  Ti4431  1  0.57561891  0.51568134  0.55155516  1.0
  Ti  Ti4432  1  0.57561891  0.68234801  0.55155516  1.0
  Ti  Ti4433  1  0.57561891  0.84901467  0.55155516  1.0
  Ti  Ti4434  1  0.65895224  0.01568134  0.55155516  1.0
  Ti  Ti4435  1  0.65895224  0.18234801  0.55155516  1.0
  Ti  Ti4436  1  0.65895224  0.34901467  0.55155516  1.0
  Ti  Ti4437  1  0.65895224  0.51568134  0.55155516  1.0
  Ti  Ti4438  1  0.65895224  0.68234801  0.55155516  1.0
  Ti  Ti4439  1  0.65895224  0.84901467  0.55155516  1.0
  Ti  Ti4440  1  0.74228557  0.01568134  0.55155516  1.0
  Ti  Ti4441  1  0.74228557  0.18234801  0.55155516  1.0
  Ti  Ti4442  1  0.74228557  0.34901467  0.55155516  1.0
  Ti  Ti4443  1  0.74228557  0.51568134  0.55155516  1.0
  Ti  Ti4444  1  0.74228557  0.68234801  0.55155516  1.0
  Ti  Ti4445  1  0.74228557  0.84901467  0.55155516  1.0
  Ti  Ti4446  1  0.82561891  0.01568134  0.55155516  1.0
  Ti  Ti4447  1  0.82561891  0.18234801  0.55155516  1.0
  Ti  Ti4448  1  0.82561891  0.34901467  0.55155516  1.0
  Ti  Ti4449  1  0.82561891  0.51568134  0.55155516  1.0
  Ti  Ti4450  1  0.82561891  0.68234801  0.55155516  1.0
  Ti  Ti4451  1  0.82561891  0.84901467  0.55155516  1.0
  Ti  Ti4452  1  0.90895224  0.01568134  0.55155516  1.0
  Ti  Ti4453  1  0.90895224  0.18234801  0.55155516  1.0
  Ti  Ti4454  1  0.90895224  0.34901467  0.55155516  1.0
  Ti  Ti4455  1  0.90895224  0.51568134  0.55155516  1.0
  Ti  Ti4456  1  0.90895224  0.68234801  0.55155516  1.0
  Ti  Ti4457  1  0.90895224  0.84901467  0.55155516  1.0
  Ti  Ti4458  1  0.99228557  0.01568134  0.55155516  1.0
  Ti  Ti4459  1  0.99228557  0.18234801  0.55155516  1.0
  Ti  Ti4460  1  0.99228557  0.34901467  0.55155516  1.0
  Ti  Ti4461  1  0.99228557  0.51568134  0.55155516  1.0
  Ti  Ti4462  1  0.99228557  0.68234801  0.55155516  1.0
  Ti  Ti4463  1  0.99228557  0.84901467  0.55155516  1.0
  Ti  Ti4464  1  0.05555571  0.12307053  0.61562915  1.0
  Ti  Ti4465  1  0.05555571  0.28973719  0.61562915  1.0
  Ti  Ti4466  1  0.05555571  0.45640386  0.61562915  1.0
  Ti  Ti4467  1  0.05555571  0.62307053  0.61562915  1.0
  Ti  Ti4468  1  0.05555571  0.78973719  0.61562915  1.0
  Ti  Ti4469  1  0.05555571  0.95640386  0.61562915  1.0
  Ti  Ti4470  1  0.13888905  0.12307053  0.61562915  1.0
  Ti  Ti4471  1  0.13888905  0.28973719  0.61562915  1.0
  Ti  Ti4472  1  0.13888905  0.45640386  0.61562915  1.0
  Ti  Ti4473  1  0.13888905  0.62307053  0.61562915  1.0
  Ti  Ti4474  1  0.13888905  0.78973719  0.61562915  1.0
  Ti  Ti4475  1  0.13888905  0.95640386  0.61562915  1.0
  Ti  Ti4476  1  0.22222238  0.12307053  0.61562915  1.0
  Ti  Ti4477  1  0.22222238  0.28973719  0.61562915  1.0
  Ti  Ti4478  1  0.22222238  0.45640386  0.61562915  1.0
  Ti  Ti4479  1  0.22222238  0.62307053  0.61562915  1.0
  Ti  Ti4480  1  0.22222238  0.78973719  0.61562915  1.0
  Ti  Ti4481  1  0.22222238  0.95640386  0.61562915  1.0
  Ti  Ti4482  1  0.30555571  0.12307053  0.61562915  1.0
  Ti  Ti4483  1  0.30555571  0.28973719  0.61562915  1.0
  Ti  Ti4484  1  0.30555571  0.45640386  0.61562915  1.0
  Ti  Ti4485  1  0.30555571  0.62307053  0.61562915  1.0
  Ti  Ti4486  1  0.30555571  0.78973719  0.61562915  1.0
  Ti  Ti4487  1  0.30555571  0.95640386  0.61562915  1.0
  Ti  Ti4488  1  0.38888905  0.12307053  0.61562915  1.0
  Ti  Ti4489  1  0.38888905  0.28973719  0.61562915  1.0
  Ti  Ti4490  1  0.38888905  0.45640386  0.61562915  1.0
  Ti  Ti4491  1  0.38888905  0.62307053  0.61562915  1.0
  Ti  Ti4492  1  0.38888905  0.78973719  0.61562915  1.0
  Ti  Ti4493  1  0.38888905  0.95640386  0.61562915  1.0
  Ti  Ti4494  1  0.47222238  0.12307053  0.61562915  1.0
  Ti  Ti4495  1  0.47222238  0.28973719  0.61562915  1.0
  Ti  Ti4496  1  0.47222238  0.45640386  0.61562915  1.0
  Ti  Ti4497  1  0.47222238  0.62307053  0.61562915  1.0
  Ti  Ti4498  1  0.47222238  0.78973719  0.61562915  1.0
  Ti  Ti4499  1  0.47222238  0.95640386  0.61562915  1.0
  Ti  Ti4500  1  0.55555571  0.12307053  0.61562915  1.0
  Ti  Ti4501  1  0.55555571  0.28973719  0.61562915  1.0
  Ti  Ti4502  1  0.55555571  0.45640386  0.61562915  1.0
  Ti  Ti4503  1  0.55555571  0.62307053  0.61562915  1.0
  Ti  Ti4504  1  0.55555571  0.78973719  0.61562915  1.0
  Ti  Ti4505  1  0.55555571  0.95640386  0.61562915  1.0
  Ti  Ti4506  1  0.63888905  0.12307053  0.61562915  1.0
  Ti  Ti4507  1  0.63888905  0.28973719  0.61562915  1.0
  Ti  Ti4508  1  0.63888905  0.45640386  0.61562915  1.0
  Ti  Ti4509  1  0.63888905  0.62307053  0.61562915  1.0
  Ti  Ti4510  1  0.63888905  0.78973719  0.61562915  1.0
  Ti  Ti4511  1  0.63888905  0.95640386  0.61562915  1.0
  Ti  Ti4512  1  0.72222238  0.12307053  0.61562915  1.0
  Ti  Ti4513  1  0.72222238  0.28973719  0.61562915  1.0
  Ti  Ti4514  1  0.72222238  0.45640386  0.61562915  1.0
  Ti  Ti4515  1  0.72222238  0.62307053  0.61562915  1.0
  Ti  Ti4516  1  0.72222238  0.78973719  0.61562915  1.0
  Ti  Ti4517  1  0.72222238  0.95640386  0.61562915  1.0
  Ti  Ti4518  1  0.80555571  0.12307053  0.61562915  1.0
  Ti  Ti4519  1  0.80555571  0.28973719  0.61562915  1.0
  Ti  Ti4520  1  0.80555571  0.45640386  0.61562915  1.0
  Ti  Ti4521  1  0.80555571  0.62307053  0.61562915  1.0
  Ti  Ti4522  1  0.80555571  0.78973719  0.61562915  1.0
  Ti  Ti4523  1  0.80555571  0.95640386  0.61562915  1.0
  Ti  Ti4524  1  0.88888905  0.12307053  0.61562915  1.0
  Ti  Ti4525  1  0.88888905  0.28973719  0.61562915  1.0
  Ti  Ti4526  1  0.88888905  0.45640386  0.61562915  1.0
  Ti  Ti4527  1  0.88888905  0.62307053  0.61562915  1.0
  Ti  Ti4528  1  0.88888905  0.78973719  0.61562915  1.0
  Ti  Ti4529  1  0.88888905  0.95640386  0.61562915  1.0
  Ti  Ti4530  1  0.97222238  0.12307053  0.61562915  1.0
  Ti  Ti4531  1  0.97222238  0.28973719  0.61562915  1.0
  Ti  Ti4532  1  0.97222238  0.45640386  0.61562915  1.0
  Ti  Ti4533  1  0.97222238  0.62307053  0.61562915  1.0
  Ti  Ti4534  1  0.97222238  0.78973719  0.61562915  1.0
  Ti  Ti4535  1  0.97222238  0.95640386  0.61562915  1.0
  Ti  Ti4536  1  0.07936524  0.13497529  0.54420058  1.0
  Ti  Ti4537  1  0.07936524  0.30164195  0.54420058  1.0
  Ti  Ti4538  1  0.07936524  0.46830862  0.54420058  1.0
  Ti  Ti4539  1  0.07936524  0.63497529  0.54420058  1.0
  Ti  Ti4540  1  0.07936524  0.80164195  0.54420058  1.0
  Ti  Ti4541  1  0.07936524  0.96830862  0.54420058  1.0
  Ti  Ti4542  1  0.16269857  0.13497529  0.54420058  1.0
  Ti  Ti4543  1  0.16269857  0.30164195  0.54420058  1.0
  Ti  Ti4544  1  0.16269857  0.46830862  0.54420058  1.0
  Ti  Ti4545  1  0.16269857  0.63497529  0.54420058  1.0
  Ti  Ti4546  1  0.16269857  0.80164195  0.54420058  1.0
  Ti  Ti4547  1  0.16269857  0.96830862  0.54420058  1.0
  Ti  Ti4548  1  0.24603190  0.13497529  0.54420058  1.0
  Ti  Ti4549  1  0.24603190  0.30164195  0.54420058  1.0
  Ti  Ti4550  1  0.24603190  0.46830862  0.54420058  1.0
  Ti  Ti4551  1  0.24603190  0.63497529  0.54420058  1.0
  Ti  Ti4552  1  0.24603190  0.80164195  0.54420058  1.0
  Ti  Ti4553  1  0.24603190  0.96830862  0.54420058  1.0
  Ti  Ti4554  1  0.32936524  0.13497529  0.54420058  1.0
  Ti  Ti4555  1  0.32936524  0.30164195  0.54420058  1.0
  Ti  Ti4556  1  0.32936524  0.46830862  0.54420058  1.0
  Ti  Ti4557  1  0.32936524  0.63497529  0.54420058  1.0
  Ti  Ti4558  1  0.32936524  0.80164195  0.54420058  1.0
  Ti  Ti4559  1  0.32936524  0.96830862  0.54420058  1.0
  Ti  Ti4560  1  0.41269857  0.13497529  0.54420058  1.0
  Ti  Ti4561  1  0.41269857  0.30164195  0.54420058  1.0
  Ti  Ti4562  1  0.41269857  0.46830862  0.54420058  1.0
  Ti  Ti4563  1  0.41269857  0.63497529  0.54420058  1.0
  Ti  Ti4564  1  0.41269857  0.80164195  0.54420058  1.0
  Ti  Ti4565  1  0.41269857  0.96830862  0.54420058  1.0
  Ti  Ti4566  1  0.49603190  0.13497529  0.54420058  1.0
  Ti  Ti4567  1  0.49603190  0.30164195  0.54420058  1.0
  Ti  Ti4568  1  0.49603190  0.46830862  0.54420058  1.0
  Ti  Ti4569  1  0.49603190  0.63497529  0.54420058  1.0
  Ti  Ti4570  1  0.49603190  0.80164195  0.54420058  1.0
  Ti  Ti4571  1  0.49603190  0.96830862  0.54420058  1.0
  Ti  Ti4572  1  0.57936524  0.13497529  0.54420058  1.0
  Ti  Ti4573  1  0.57936524  0.30164195  0.54420058  1.0
  Ti  Ti4574  1  0.57936524  0.46830862  0.54420058  1.0
  Ti  Ti4575  1  0.57936524  0.63497529  0.54420058  1.0
  Ti  Ti4576  1  0.57936524  0.80164195  0.54420058  1.0
  Ti  Ti4577  1  0.57936524  0.96830862  0.54420058  1.0
  Ti  Ti4578  1  0.66269857  0.13497529  0.54420058  1.0
  Ti  Ti4579  1  0.66269857  0.30164195  0.54420058  1.0
  Ti  Ti4580  1  0.66269857  0.46830862  0.54420058  1.0
  Ti  Ti4581  1  0.66269857  0.63497529  0.54420058  1.0
  Ti  Ti4582  1  0.66269857  0.80164195  0.54420058  1.0
  Ti  Ti4583  1  0.66269857  0.96830862  0.54420058  1.0
  Ti  Ti4584  1  0.74603190  0.13497529  0.54420058  1.0
  Ti  Ti4585  1  0.74603190  0.30164195  0.54420058  1.0
  Ti  Ti4586  1  0.74603190  0.46830862  0.54420058  1.0
  Ti  Ti4587  1  0.74603190  0.63497529  0.54420058  1.0
  Ti  Ti4588  1  0.74603190  0.80164195  0.54420058  1.0
  Ti  Ti4589  1  0.74603190  0.96830862  0.54420058  1.0
  Ti  Ti4590  1  0.82936524  0.13497529  0.54420058  1.0
  Ti  Ti4591  1  0.82936524  0.30164195  0.54420058  1.0
  Ti  Ti4592  1  0.82936524  0.46830862  0.54420058  1.0
  Ti  Ti4593  1  0.82936524  0.63497529  0.54420058  1.0
  Ti  Ti4594  1  0.82936524  0.80164195  0.54420058  1.0
  Ti  Ti4595  1  0.82936524  0.96830862  0.54420058  1.0
  Ti  Ti4596  1  0.91269857  0.13497529  0.54420058  1.0
  Ti  Ti4597  1  0.91269857  0.30164195  0.54420058  1.0
  Ti  Ti4598  1  0.91269857  0.46830862  0.54420058  1.0
  Ti  Ti4599  1  0.91269857  0.63497529  0.54420058  1.0
  Ti  Ti4600  1  0.91269857  0.80164195  0.54420058  1.0
  Ti  Ti4601  1  0.91269857  0.96830862  0.54420058  1.0
  Ti  Ti4602  1  0.99603190  0.13497529  0.54420058  1.0
  Ti  Ti4603  1  0.99603190  0.30164195  0.54420058  1.0
  Ti  Ti4604  1  0.99603190  0.46830862  0.54420058  1.0
  Ti  Ti4605  1  0.99603190  0.63497529  0.54420058  1.0
  Ti  Ti4606  1  0.99603190  0.80164195  0.54420058  1.0
  Ti  Ti4607  1  0.99603190  0.96830862  0.54420058  1.0
  Ti  Ti4608  1  0.04859539  0.04769621  0.63290274  1.0
  Ti  Ti4609  1  0.04859539  0.21436288  0.63290274  1.0
  Ti  Ti4610  1  0.04859539  0.38102954  0.63290274  1.0
  Ti  Ti4611  1  0.04859539  0.54769621  0.63290274  1.0
  Ti  Ti4612  1  0.04859539  0.71436288  0.63290274  1.0
  Ti  Ti4613  1  0.04859539  0.88102954  0.63290274  1.0
  Ti  Ti4614  1  0.13192872  0.04769621  0.63290274  1.0
  Ti  Ti4615  1  0.13192872  0.21436288  0.63290274  1.0
  Ti  Ti4616  1  0.13192872  0.38102954  0.63290274  1.0
  Ti  Ti4617  1  0.13192872  0.54769621  0.63290274  1.0
  Ti  Ti4618  1  0.13192872  0.71436288  0.63290274  1.0
  Ti  Ti4619  1  0.13192872  0.88102954  0.63290274  1.0
  Ti  Ti4620  1  0.21526205  0.04769621  0.63290274  1.0
  Ti  Ti4621  1  0.21526205  0.21436288  0.63290274  1.0
  Ti  Ti4622  1  0.21526205  0.38102954  0.63290274  1.0
  Ti  Ti4623  1  0.21526205  0.54769621  0.63290274  1.0
  Ti  Ti4624  1  0.21526205  0.71436288  0.63290274  1.0
  Ti  Ti4625  1  0.21526205  0.88102954  0.63290274  1.0
  Ti  Ti4626  1  0.29859539  0.04769621  0.63290274  1.0
  Ti  Ti4627  1  0.29859539  0.21436288  0.63290274  1.0
  Ti  Ti4628  1  0.29859539  0.38102954  0.63290274  1.0
  Ti  Ti4629  1  0.29859539  0.54769621  0.63290274  1.0
  Ti  Ti4630  1  0.29859539  0.71436288  0.63290274  1.0
  Ti  Ti4631  1  0.29859539  0.88102954  0.63290274  1.0
  Ti  Ti4632  1  0.38192872  0.04769621  0.63290274  1.0
  Ti  Ti4633  1  0.38192872  0.21436288  0.63290274  1.0
  Ti  Ti4634  1  0.38192872  0.38102954  0.63290274  1.0
  Ti  Ti4635  1  0.38192872  0.54769621  0.63290274  1.0
  Ti  Ti4636  1  0.38192872  0.71436288  0.63290274  1.0
  Ti  Ti4637  1  0.38192872  0.88102954  0.63290274  1.0
  Ti  Ti4638  1  0.46526205  0.04769621  0.63290274  1.0
  Ti  Ti4639  1  0.46526205  0.21436288  0.63290274  1.0
  Ti  Ti4640  1  0.46526205  0.38102954  0.63290274  1.0
  Ti  Ti4641  1  0.46526205  0.54769621  0.63290274  1.0
  Ti  Ti4642  1  0.46526205  0.71436288  0.63290274  1.0
  Ti  Ti4643  1  0.46526205  0.88102954  0.63290274  1.0
  Ti  Ti4644  1  0.54859539  0.04769621  0.63290274  1.0
  Ti  Ti4645  1  0.54859539  0.21436288  0.63290274  1.0
  Ti  Ti4646  1  0.54859539  0.38102954  0.63290274  1.0
  Ti  Ti4647  1  0.54859539  0.54769621  0.63290274  1.0
  Ti  Ti4648  1  0.54859539  0.71436288  0.63290274  1.0
  Ti  Ti4649  1  0.54859539  0.88102954  0.63290274  1.0
  Ti  Ti4650  1  0.63192872  0.04769621  0.63290274  1.0
  Ti  Ti4651  1  0.63192872  0.21436288  0.63290274  1.0
  Ti  Ti4652  1  0.63192872  0.38102954  0.63290274  1.0
  Ti  Ti4653  1  0.63192872  0.54769621  0.63290274  1.0
  Ti  Ti4654  1  0.63192872  0.71436288  0.63290274  1.0
  Ti  Ti4655  1  0.63192872  0.88102954  0.63290274  1.0
  Ti  Ti4656  1  0.71526205  0.04769621  0.63290274  1.0
  Ti  Ti4657  1  0.71526205  0.21436288  0.63290274  1.0
  Ti  Ti4658  1  0.71526205  0.38102954  0.63290274  1.0
  Ti  Ti4659  1  0.71526205  0.54769621  0.63290274  1.0
  Ti  Ti4660  1  0.71526205  0.71436288  0.63290274  1.0
  Ti  Ti4661  1  0.71526205  0.88102954  0.63290274  1.0
  Ti  Ti4662  1  0.79859539  0.04769621  0.63290274  1.0
  Ti  Ti4663  1  0.79859539  0.21436288  0.63290274  1.0
  Ti  Ti4664  1  0.79859539  0.38102954  0.63290274  1.0
  Ti  Ti4665  1  0.79859539  0.54769621  0.63290274  1.0
  Ti  Ti4666  1  0.79859539  0.71436288  0.63290274  1.0
  Ti  Ti4667  1  0.79859539  0.88102954  0.63290274  1.0
  Ti  Ti4668  1  0.88192872  0.04769621  0.63290274  1.0
  Ti  Ti4669  1  0.88192872  0.21436288  0.63290274  1.0
  Ti  Ti4670  1  0.88192872  0.38102954  0.63290274  1.0
  Ti  Ti4671  1  0.88192872  0.54769621  0.63290274  1.0
  Ti  Ti4672  1  0.88192872  0.71436288  0.63290274  1.0
  Ti  Ti4673  1  0.88192872  0.88102954  0.63290274  1.0
  Ti  Ti4674  1  0.96526205  0.04769621  0.63290274  1.0
  Ti  Ti4675  1  0.96526205  0.21436288  0.63290274  1.0
  Ti  Ti4676  1  0.96526205  0.38102954  0.63290274  1.0
  Ti  Ti4677  1  0.96526205  0.54769621  0.63290274  1.0
  Ti  Ti4678  1  0.96526205  0.71436288  0.63290274  1.0
  Ti  Ti4679  1  0.96526205  0.88102954  0.63290274  1.0
  Ti  Ti4680  1  0.07240491  0.05960097  0.56147417  1.0
  Ti  Ti4681  1  0.07240491  0.22626764  0.56147417  1.0
  Ti  Ti4682  1  0.07240491  0.39293430  0.56147417  1.0
  Ti  Ti4683  1  0.07240491  0.55960097  0.56147417  1.0
  Ti  Ti4684  1  0.07240491  0.72626764  0.56147417  1.0
  Ti  Ti4685  1  0.07240491  0.89293430  0.56147417  1.0
  Ti  Ti4686  1  0.15573824  0.05960097  0.56147417  1.0
  Ti  Ti4687  1  0.15573824  0.22626764  0.56147417  1.0
  Ti  Ti4688  1  0.15573824  0.39293430  0.56147417  1.0
  Ti  Ti4689  1  0.15573824  0.55960097  0.56147417  1.0
  Ti  Ti4690  1  0.15573824  0.72626764  0.56147417  1.0
  Ti  Ti4691  1  0.15573824  0.89293430  0.56147417  1.0
  Ti  Ti4692  1  0.23907158  0.05960097  0.56147417  1.0
  Ti  Ti4693  1  0.23907158  0.22626764  0.56147417  1.0
  Ti  Ti4694  1  0.23907158  0.39293430  0.56147417  1.0
  Ti  Ti4695  1  0.23907158  0.55960097  0.56147417  1.0
  Ti  Ti4696  1  0.23907158  0.72626764  0.56147417  1.0
  Ti  Ti4697  1  0.23907158  0.89293430  0.56147417  1.0
  Ti  Ti4698  1  0.32240491  0.05960097  0.56147417  1.0
  Ti  Ti4699  1  0.32240491  0.22626764  0.56147417  1.0
  Ti  Ti4700  1  0.32240491  0.39293430  0.56147417  1.0
  Ti  Ti4701  1  0.32240491  0.55960097  0.56147417  1.0
  Ti  Ti4702  1  0.32240491  0.72626764  0.56147417  1.0
  Ti  Ti4703  1  0.32240491  0.89293430  0.56147417  1.0
  Ti  Ti4704  1  0.40573824  0.05960097  0.56147417  1.0
  Ti  Ti4705  1  0.40573824  0.22626764  0.56147417  1.0
  Ti  Ti4706  1  0.40573824  0.39293430  0.56147417  1.0
  Ti  Ti4707  1  0.40573824  0.55960097  0.56147417  1.0
  Ti  Ti4708  1  0.40573824  0.72626764  0.56147417  1.0
  Ti  Ti4709  1  0.40573824  0.89293430  0.56147417  1.0
  Ti  Ti4710  1  0.48907158  0.05960097  0.56147417  1.0
  Ti  Ti4711  1  0.48907158  0.22626764  0.56147417  1.0
  Ti  Ti4712  1  0.48907158  0.39293430  0.56147417  1.0
  Ti  Ti4713  1  0.48907158  0.55960097  0.56147417  1.0
  Ti  Ti4714  1  0.48907158  0.72626764  0.56147417  1.0
  Ti  Ti4715  1  0.48907158  0.89293430  0.56147417  1.0
  Ti  Ti4716  1  0.57240491  0.05960097  0.56147417  1.0
  Ti  Ti4717  1  0.57240491  0.22626764  0.56147417  1.0
  Ti  Ti4718  1  0.57240491  0.39293430  0.56147417  1.0
  Ti  Ti4719  1  0.57240491  0.55960097  0.56147417  1.0
  Ti  Ti4720  1  0.57240491  0.72626764  0.56147417  1.0
  Ti  Ti4721  1  0.57240491  0.89293430  0.56147417  1.0
  Ti  Ti4722  1  0.65573824  0.05960097  0.56147417  1.0
  Ti  Ti4723  1  0.65573824  0.22626764  0.56147417  1.0
  Ti  Ti4724  1  0.65573824  0.39293430  0.56147417  1.0
  Ti  Ti4725  1  0.65573824  0.55960097  0.56147417  1.0
  Ti  Ti4726  1  0.65573824  0.72626764  0.56147417  1.0
  Ti  Ti4727  1  0.65573824  0.89293430  0.56147417  1.0
  Ti  Ti4728  1  0.73907158  0.05960097  0.56147417  1.0
  Ti  Ti4729  1  0.73907158  0.22626764  0.56147417  1.0
  Ti  Ti4730  1  0.73907158  0.39293430  0.56147417  1.0
  Ti  Ti4731  1  0.73907158  0.55960097  0.56147417  1.0
  Ti  Ti4732  1  0.73907158  0.72626764  0.56147417  1.0
  Ti  Ti4733  1  0.73907158  0.89293430  0.56147417  1.0
  Ti  Ti4734  1  0.82240491  0.05960097  0.56147417  1.0
  Ti  Ti4735  1  0.82240491  0.22626764  0.56147417  1.0
  Ti  Ti4736  1  0.82240491  0.39293430  0.56147417  1.0
  Ti  Ti4737  1  0.82240491  0.55960097  0.56147417  1.0
  Ti  Ti4738  1  0.82240491  0.72626764  0.56147417  1.0
  Ti  Ti4739  1  0.82240491  0.89293430  0.56147417  1.0
  Ti  Ti4740  1  0.90573824  0.05960097  0.56147417  1.0
  Ti  Ti4741  1  0.90573824  0.22626764  0.56147417  1.0
  Ti  Ti4742  1  0.90573824  0.39293430  0.56147417  1.0
  Ti  Ti4743  1  0.90573824  0.55960097  0.56147417  1.0
  Ti  Ti4744  1  0.90573824  0.72626764  0.56147417  1.0
  Ti  Ti4745  1  0.90573824  0.89293430  0.56147417  1.0
  Ti  Ti4746  1  0.98907158  0.05960097  0.56147417  1.0
  Ti  Ti4747  1  0.98907158  0.22626764  0.56147417  1.0
  Ti  Ti4748  1  0.98907158  0.39293430  0.56147417  1.0
  Ti  Ti4749  1  0.98907158  0.55960097  0.56147417  1.0
  Ti  Ti4750  1  0.98907158  0.72626764  0.56147417  1.0
  Ti  Ti4751  1  0.98907158  0.89293430  0.56147417  1.0
  Ti  Ti4752  1  0.07859808  0.04361589  0.67135842  1.0
  Ti  Ti4753  1  0.07859808  0.21028255  0.67135842  1.0
  Ti  Ti4754  1  0.07859808  0.37694922  0.67135842  1.0
  Ti  Ti4755  1  0.07859808  0.54361589  0.67135842  1.0
  Ti  Ti4756  1  0.07859808  0.71028255  0.67135842  1.0
  Ti  Ti4757  1  0.07859808  0.87694922  0.67135842  1.0
  Ti  Ti4758  1  0.16193141  0.04361589  0.67135842  1.0
  Ti  Ti4759  1  0.16193141  0.21028255  0.67135842  1.0
  Ti  Ti4760  1  0.16193141  0.37694922  0.67135842  1.0
  Ti  Ti4761  1  0.16193141  0.54361589  0.67135842  1.0
  Ti  Ti4762  1  0.16193141  0.71028255  0.67135842  1.0
  Ti  Ti4763  1  0.16193141  0.87694922  0.67135842  1.0
  Ti  Ti4764  1  0.24526474  0.04361589  0.67135842  1.0
  Ti  Ti4765  1  0.24526474  0.21028255  0.67135842  1.0
  Ti  Ti4766  1  0.24526474  0.37694922  0.67135842  1.0
  Ti  Ti4767  1  0.24526474  0.54361589  0.67135842  1.0
  Ti  Ti4768  1  0.24526474  0.71028255  0.67135842  1.0
  Ti  Ti4769  1  0.24526474  0.87694922  0.67135842  1.0
  Ti  Ti4770  1  0.32859808  0.04361589  0.67135842  1.0
  Ti  Ti4771  1  0.32859808  0.21028255  0.67135842  1.0
  Ti  Ti4772  1  0.32859808  0.37694922  0.67135842  1.0
  Ti  Ti4773  1  0.32859808  0.54361589  0.67135842  1.0
  Ti  Ti4774  1  0.32859808  0.71028255  0.67135842  1.0
  Ti  Ti4775  1  0.32859808  0.87694922  0.67135842  1.0
  Ti  Ti4776  1  0.41193141  0.04361589  0.67135842  1.0
  Ti  Ti4777  1  0.41193141  0.21028255  0.67135842  1.0
  Ti  Ti4778  1  0.41193141  0.37694922  0.67135842  1.0
  Ti  Ti4779  1  0.41193141  0.54361589  0.67135842  1.0
  Ti  Ti4780  1  0.41193141  0.71028255  0.67135842  1.0
  Ti  Ti4781  1  0.41193141  0.87694922  0.67135842  1.0
  Ti  Ti4782  1  0.49526474  0.04361589  0.67135842  1.0
  Ti  Ti4783  1  0.49526474  0.21028255  0.67135842  1.0
  Ti  Ti4784  1  0.49526474  0.37694922  0.67135842  1.0
  Ti  Ti4785  1  0.49526474  0.54361589  0.67135842  1.0
  Ti  Ti4786  1  0.49526474  0.71028255  0.67135842  1.0
  Ti  Ti4787  1  0.49526474  0.87694922  0.67135842  1.0
  Ti  Ti4788  1  0.57859808  0.04361589  0.67135842  1.0
  Ti  Ti4789  1  0.57859808  0.21028255  0.67135842  1.0
  Ti  Ti4790  1  0.57859808  0.37694922  0.67135842  1.0
  Ti  Ti4791  1  0.57859808  0.54361589  0.67135842  1.0
  Ti  Ti4792  1  0.57859808  0.71028255  0.67135842  1.0
  Ti  Ti4793  1  0.57859808  0.87694922  0.67135842  1.0
  Ti  Ti4794  1  0.66193141  0.04361589  0.67135842  1.0
  Ti  Ti4795  1  0.66193141  0.21028255  0.67135842  1.0
  Ti  Ti4796  1  0.66193141  0.37694922  0.67135842  1.0
  Ti  Ti4797  1  0.66193141  0.54361589  0.67135842  1.0
  Ti  Ti4798  1  0.66193141  0.71028255  0.67135842  1.0
  Ti  Ti4799  1  0.66193141  0.87694922  0.67135842  1.0
  Ti  Ti4800  1  0.74526474  0.04361589  0.67135842  1.0
  Ti  Ti4801  1  0.74526474  0.21028255  0.67135842  1.0
  Ti  Ti4802  1  0.74526474  0.37694922  0.67135842  1.0
  Ti  Ti4803  1  0.74526474  0.54361589  0.67135842  1.0
  Ti  Ti4804  1  0.74526474  0.71028255  0.67135842  1.0
  Ti  Ti4805  1  0.74526474  0.87694922  0.67135842  1.0
  Ti  Ti4806  1  0.82859808  0.04361589  0.67135842  1.0
  Ti  Ti4807  1  0.82859808  0.21028255  0.67135842  1.0
  Ti  Ti4808  1  0.82859808  0.37694922  0.67135842  1.0
  Ti  Ti4809  1  0.82859808  0.54361589  0.67135842  1.0
  Ti  Ti4810  1  0.82859808  0.71028255  0.67135842  1.0
  Ti  Ti4811  1  0.82859808  0.87694922  0.67135842  1.0
  Ti  Ti4812  1  0.91193141  0.04361589  0.67135842  1.0
  Ti  Ti4813  1  0.91193141  0.21028255  0.67135842  1.0
  Ti  Ti4814  1  0.91193141  0.37694922  0.67135842  1.0
  Ti  Ti4815  1  0.91193141  0.54361589  0.67135842  1.0
  Ti  Ti4816  1  0.91193141  0.71028255  0.67135842  1.0
  Ti  Ti4817  1  0.91193141  0.87694922  0.67135842  1.0
  Ti  Ti4818  1  0.99526474  0.04361589  0.67135842  1.0
  Ti  Ti4819  1  0.99526474  0.21028255  0.67135842  1.0
  Ti  Ti4820  1  0.99526474  0.37694922  0.67135842  1.0
  Ti  Ti4821  1  0.99526474  0.54361589  0.67135842  1.0
  Ti  Ti4822  1  0.99526474  0.71028255  0.67135842  1.0
  Ti  Ti4823  1  0.99526474  0.87694922  0.67135842  1.0
  Ti  Ti4824  1  0.00051439  0.11756342  0.64981337  1.0
  Ti  Ti4825  1  0.00051439  0.28423008  0.64981337  1.0
  Ti  Ti4826  1  0.00051439  0.45089675  0.64981337  1.0
  Ti  Ti4827  1  0.00051439  0.61756342  0.64981337  1.0
  Ti  Ti4828  1  0.00051439  0.78423008  0.64981337  1.0
  Ti  Ti4829  1  0.00051439  0.95089675  0.64981337  1.0
  Ti  Ti4830  1  0.08384772  0.11756342  0.64981337  1.0
  Ti  Ti4831  1  0.08384772  0.28423008  0.64981337  1.0
  Ti  Ti4832  1  0.08384772  0.45089675  0.64981337  1.0
  Ti  Ti4833  1  0.08384772  0.61756342  0.64981337  1.0
  Ti  Ti4834  1  0.08384772  0.78423008  0.64981337  1.0
  Ti  Ti4835  1  0.08384772  0.95089675  0.64981337  1.0
  Ti  Ti4836  1  0.16718105  0.11756342  0.64981337  1.0
  Ti  Ti4837  1  0.16718105  0.28423008  0.64981337  1.0
  Ti  Ti4838  1  0.16718105  0.45089675  0.64981337  1.0
  Ti  Ti4839  1  0.16718105  0.61756342  0.64981337  1.0
  Ti  Ti4840  1  0.16718105  0.78423008  0.64981337  1.0
  Ti  Ti4841  1  0.16718105  0.95089675  0.64981337  1.0
  Ti  Ti4842  1  0.25051439  0.11756342  0.64981337  1.0
  Ti  Ti4843  1  0.25051439  0.28423008  0.64981337  1.0
  Ti  Ti4844  1  0.25051439  0.45089675  0.64981337  1.0
  Ti  Ti4845  1  0.25051439  0.61756342  0.64981337  1.0
  Ti  Ti4846  1  0.25051439  0.78423008  0.64981337  1.0
  Ti  Ti4847  1  0.25051439  0.95089675  0.64981337  1.0
  Ti  Ti4848  1  0.33384772  0.11756342  0.64981337  1.0
  Ti  Ti4849  1  0.33384772  0.28423008  0.64981337  1.0
  Ti  Ti4850  1  0.33384772  0.45089675  0.64981337  1.0
  Ti  Ti4851  1  0.33384772  0.61756342  0.64981337  1.0
  Ti  Ti4852  1  0.33384772  0.78423008  0.64981337  1.0
  Ti  Ti4853  1  0.33384772  0.95089675  0.64981337  1.0
  Ti  Ti4854  1  0.41718105  0.11756342  0.64981337  1.0
  Ti  Ti4855  1  0.41718105  0.28423008  0.64981337  1.0
  Ti  Ti4856  1  0.41718105  0.45089675  0.64981337  1.0
  Ti  Ti4857  1  0.41718105  0.61756342  0.64981337  1.0
  Ti  Ti4858  1  0.41718105  0.78423008  0.64981337  1.0
  Ti  Ti4859  1  0.41718105  0.95089675  0.64981337  1.0
  Ti  Ti4860  1  0.50051439  0.11756342  0.64981337  1.0
  Ti  Ti4861  1  0.50051439  0.28423008  0.64981337  1.0
  Ti  Ti4862  1  0.50051439  0.45089675  0.64981337  1.0
  Ti  Ti4863  1  0.50051439  0.61756342  0.64981337  1.0
  Ti  Ti4864  1  0.50051439  0.78423008  0.64981337  1.0
  Ti  Ti4865  1  0.50051439  0.95089675  0.64981337  1.0
  Ti  Ti4866  1  0.58384772  0.11756342  0.64981337  1.0
  Ti  Ti4867  1  0.58384772  0.28423008  0.64981337  1.0
  Ti  Ti4868  1  0.58384772  0.45089675  0.64981337  1.0
  Ti  Ti4869  1  0.58384772  0.61756342  0.64981337  1.0
  Ti  Ti4870  1  0.58384772  0.78423008  0.64981337  1.0
  Ti  Ti4871  1  0.58384772  0.95089675  0.64981337  1.0
  Ti  Ti4872  1  0.66718105  0.11756342  0.64981337  1.0
  Ti  Ti4873  1  0.66718105  0.28423008  0.64981337  1.0
  Ti  Ti4874  1  0.66718105  0.45089675  0.64981337  1.0
  Ti  Ti4875  1  0.66718105  0.61756342  0.64981337  1.0
  Ti  Ti4876  1  0.66718105  0.78423008  0.64981337  1.0
  Ti  Ti4877  1  0.66718105  0.95089675  0.64981337  1.0
  Ti  Ti4878  1  0.75051439  0.11756342  0.64981337  1.0
  Ti  Ti4879  1  0.75051439  0.28423008  0.64981337  1.0
  Ti  Ti4880  1  0.75051439  0.45089675  0.64981337  1.0
  Ti  Ti4881  1  0.75051439  0.61756342  0.64981337  1.0
  Ti  Ti4882  1  0.75051439  0.78423008  0.64981337  1.0
  Ti  Ti4883  1  0.75051439  0.95089675  0.64981337  1.0
  Ti  Ti4884  1  0.83384772  0.11756342  0.64981337  1.0
  Ti  Ti4885  1  0.83384772  0.28423008  0.64981337  1.0
  Ti  Ti4886  1  0.83384772  0.45089675  0.64981337  1.0
  Ti  Ti4887  1  0.83384772  0.61756342  0.64981337  1.0
  Ti  Ti4888  1  0.83384772  0.78423008  0.64981337  1.0
  Ti  Ti4889  1  0.83384772  0.95089675  0.64981337  1.0
  Ti  Ti4890  1  0.91718105  0.11756342  0.64981337  1.0
  Ti  Ti4891  1  0.91718105  0.28423008  0.64981337  1.0
  Ti  Ti4892  1  0.91718105  0.45089675  0.64981337  1.0
  Ti  Ti4893  1  0.91718105  0.61756342  0.64981337  1.0
  Ti  Ti4894  1  0.91718105  0.78423008  0.64981337  1.0
  Ti  Ti4895  1  0.91718105  0.95089675  0.64981337  1.0
  Ti  Ti4896  1  0.06003820  0.10565865  0.72124194  1.0
  Ti  Ti4897  1  0.06003820  0.27232532  0.72124194  1.0
  Ti  Ti4898  1  0.06003820  0.43899199  0.72124194  1.0
  Ti  Ti4899  1  0.06003820  0.60565865  0.72124194  1.0
  Ti  Ti4900  1  0.06003820  0.77232532  0.72124194  1.0
  Ti  Ti4901  1  0.06003820  0.93899199  0.72124194  1.0
  Ti  Ti4902  1  0.14337153  0.10565865  0.72124194  1.0
  Ti  Ti4903  1  0.14337153  0.27232532  0.72124194  1.0
  Ti  Ti4904  1  0.14337153  0.43899199  0.72124194  1.0
  Ti  Ti4905  1  0.14337153  0.60565865  0.72124194  1.0
  Ti  Ti4906  1  0.14337153  0.77232532  0.72124194  1.0
  Ti  Ti4907  1  0.14337153  0.93899199  0.72124194  1.0
  Ti  Ti4908  1  0.22670486  0.10565865  0.72124194  1.0
  Ti  Ti4909  1  0.22670486  0.27232532  0.72124194  1.0
  Ti  Ti4910  1  0.22670486  0.43899199  0.72124194  1.0
  Ti  Ti4911  1  0.22670486  0.60565865  0.72124194  1.0
  Ti  Ti4912  1  0.22670486  0.77232532  0.72124194  1.0
  Ti  Ti4913  1  0.22670486  0.93899199  0.72124194  1.0
  Ti  Ti4914  1  0.31003820  0.10565865  0.72124194  1.0
  Ti  Ti4915  1  0.31003820  0.27232532  0.72124194  1.0
  Ti  Ti4916  1  0.31003820  0.43899199  0.72124194  1.0
  Ti  Ti4917  1  0.31003820  0.60565865  0.72124194  1.0
  Ti  Ti4918  1  0.31003820  0.77232532  0.72124194  1.0
  Ti  Ti4919  1  0.31003820  0.93899199  0.72124194  1.0
  Ti  Ti4920  1  0.39337153  0.10565865  0.72124194  1.0
  Ti  Ti4921  1  0.39337153  0.27232532  0.72124194  1.0
  Ti  Ti4922  1  0.39337153  0.43899199  0.72124194  1.0
  Ti  Ti4923  1  0.39337153  0.60565865  0.72124194  1.0
  Ti  Ti4924  1  0.39337153  0.77232532  0.72124194  1.0
  Ti  Ti4925  1  0.39337153  0.93899199  0.72124194  1.0
  Ti  Ti4926  1  0.47670486  0.10565865  0.72124194  1.0
  Ti  Ti4927  1  0.47670486  0.27232532  0.72124194  1.0
  Ti  Ti4928  1  0.47670486  0.43899199  0.72124194  1.0
  Ti  Ti4929  1  0.47670486  0.60565865  0.72124194  1.0
  Ti  Ti4930  1  0.47670486  0.77232532  0.72124194  1.0
  Ti  Ti4931  1  0.47670486  0.93899199  0.72124194  1.0
  Ti  Ti4932  1  0.56003820  0.10565865  0.72124194  1.0
  Ti  Ti4933  1  0.56003820  0.27232532  0.72124194  1.0
  Ti  Ti4934  1  0.56003820  0.43899199  0.72124194  1.0
  Ti  Ti4935  1  0.56003820  0.60565865  0.72124194  1.0
  Ti  Ti4936  1  0.56003820  0.77232532  0.72124194  1.0
  Ti  Ti4937  1  0.56003820  0.93899199  0.72124194  1.0
  Ti  Ti4938  1  0.64337153  0.10565865  0.72124194  1.0
  Ti  Ti4939  1  0.64337153  0.27232532  0.72124194  1.0
  Ti  Ti4940  1  0.64337153  0.43899199  0.72124194  1.0
  Ti  Ti4941  1  0.64337153  0.60565865  0.72124194  1.0
  Ti  Ti4942  1  0.64337153  0.77232532  0.72124194  1.0
  Ti  Ti4943  1  0.64337153  0.93899199  0.72124194  1.0
  Ti  Ti4944  1  0.72670486  0.10565865  0.72124194  1.0
  Ti  Ti4945  1  0.72670486  0.27232532  0.72124194  1.0
  Ti  Ti4946  1  0.72670486  0.43899199  0.72124194  1.0
  Ti  Ti4947  1  0.72670486  0.60565865  0.72124194  1.0
  Ti  Ti4948  1  0.72670486  0.77232532  0.72124194  1.0
  Ti  Ti4949  1  0.72670486  0.93899199  0.72124194  1.0
  Ti  Ti4950  1  0.81003820  0.10565865  0.72124194  1.0
  Ti  Ti4951  1  0.81003820  0.27232532  0.72124194  1.0
  Ti  Ti4952  1  0.81003820  0.43899199  0.72124194  1.0
  Ti  Ti4953  1  0.81003820  0.60565865  0.72124194  1.0
  Ti  Ti4954  1  0.81003820  0.77232532  0.72124194  1.0
  Ti  Ti4955  1  0.81003820  0.93899199  0.72124194  1.0
  Ti  Ti4956  1  0.89337153  0.10565865  0.72124194  1.0
  Ti  Ti4957  1  0.89337153  0.27232532  0.72124194  1.0
  Ti  Ti4958  1  0.89337153  0.43899199  0.72124194  1.0
  Ti  Ti4959  1  0.89337153  0.60565865  0.72124194  1.0
  Ti  Ti4960  1  0.89337153  0.77232532  0.72124194  1.0
  Ti  Ti4961  1  0.89337153  0.93899199  0.72124194  1.0
  Ti  Ti4962  1  0.97670486  0.10565865  0.72124194  1.0
  Ti  Ti4963  1  0.97670486  0.27232532  0.72124194  1.0
  Ti  Ti4964  1  0.97670486  0.43899199  0.72124194  1.0
  Ti  Ti4965  1  0.97670486  0.60565865  0.72124194  1.0
  Ti  Ti4966  1  0.97670486  0.77232532  0.72124194  1.0
  Ti  Ti4967  1  0.97670486  0.93899199  0.72124194  1.0
  Ti  Ti4968  1  0.08303993  0.16403668  0.66021158  1.0
  Ti  Ti4969  1  0.08303993  0.33070335  0.66021158  1.0
  Ti  Ti4970  1  0.08303993  0.49737001  0.66021158  1.0
  Ti  Ti4971  1  0.08303993  0.66403668  0.66021158  1.0
  Ti  Ti4972  1  0.08303993  0.83070335  0.66021158  1.0
  Ti  Ti4973  1  0.08303993  0.99737001  0.66021158  1.0
  Ti  Ti4974  1  0.16637326  0.16403668  0.66021158  1.0
  Ti  Ti4975  1  0.16637326  0.33070335  0.66021158  1.0
  Ti  Ti4976  1  0.16637326  0.49737001  0.66021158  1.0
  Ti  Ti4977  1  0.16637326  0.66403668  0.66021158  1.0
  Ti  Ti4978  1  0.16637326  0.83070335  0.66021158  1.0
  Ti  Ti4979  1  0.16637326  0.99737001  0.66021158  1.0
  Ti  Ti4980  1  0.24970660  0.16403668  0.66021158  1.0
  Ti  Ti4981  1  0.24970660  0.33070335  0.66021158  1.0
  Ti  Ti4982  1  0.24970660  0.49737001  0.66021158  1.0
  Ti  Ti4983  1  0.24970660  0.66403668  0.66021158  1.0
  Ti  Ti4984  1  0.24970660  0.83070335  0.66021158  1.0
  Ti  Ti4985  1  0.24970660  0.99737001  0.66021158  1.0
  Ti  Ti4986  1  0.33303993  0.16403668  0.66021158  1.0
  Ti  Ti4987  1  0.33303993  0.33070335  0.66021158  1.0
  Ti  Ti4988  1  0.33303993  0.49737001  0.66021158  1.0
  Ti  Ti4989  1  0.33303993  0.66403668  0.66021158  1.0
  Ti  Ti4990  1  0.33303993  0.83070335  0.66021158  1.0
  Ti  Ti4991  1  0.33303993  0.99737001  0.66021158  1.0
  Ti  Ti4992  1  0.41637326  0.16403668  0.66021158  1.0
  Ti  Ti4993  1  0.41637326  0.33070335  0.66021158  1.0
  Ti  Ti4994  1  0.41637326  0.49737001  0.66021158  1.0
  Ti  Ti4995  1  0.41637326  0.66403668  0.66021158  1.0
  Ti  Ti4996  1  0.41637326  0.83070335  0.66021158  1.0
  Ti  Ti4997  1  0.41637326  0.99737001  0.66021158  1.0
  Ti  Ti4998  1  0.49970660  0.16403668  0.66021158  1.0
  Ti  Ti4999  1  0.49970660  0.33070335  0.66021158  1.0
  Ti  Ti5000  1  0.49970660  0.49737001  0.66021158  1.0
  Ti  Ti5001  1  0.49970660  0.66403668  0.66021158  1.0
  Ti  Ti5002  1  0.49970660  0.83070335  0.66021158  1.0
  Ti  Ti5003  1  0.49970660  0.99737001  0.66021158  1.0
  Ti  Ti5004  1  0.58303993  0.16403668  0.66021158  1.0
  Ti  Ti5005  1  0.58303993  0.33070335  0.66021158  1.0
  Ti  Ti5006  1  0.58303993  0.49737001  0.66021158  1.0
  Ti  Ti5007  1  0.58303993  0.66403668  0.66021158  1.0
  Ti  Ti5008  1  0.58303993  0.83070335  0.66021158  1.0
  Ti  Ti5009  1  0.58303993  0.99737001  0.66021158  1.0
  Ti  Ti5010  1  0.66637326  0.16403668  0.66021158  1.0
  Ti  Ti5011  1  0.66637326  0.33070335  0.66021158  1.0
  Ti  Ti5012  1  0.66637326  0.49737001  0.66021158  1.0
  Ti  Ti5013  1  0.66637326  0.66403668  0.66021158  1.0
  Ti  Ti5014  1  0.66637326  0.83070335  0.66021158  1.0
  Ti  Ti5015  1  0.66637326  0.99737001  0.66021158  1.0
  Ti  Ti5016  1  0.74970660  0.16403668  0.66021158  1.0
  Ti  Ti5017  1  0.74970660  0.33070335  0.66021158  1.0
  Ti  Ti5018  1  0.74970660  0.49737001  0.66021158  1.0
  Ti  Ti5019  1  0.74970660  0.66403668  0.66021158  1.0
  Ti  Ti5020  1  0.74970660  0.83070335  0.66021158  1.0
  Ti  Ti5021  1  0.74970660  0.99737001  0.66021158  1.0
  Ti  Ti5022  1  0.83303993  0.16403668  0.66021158  1.0
  Ti  Ti5023  1  0.83303993  0.33070335  0.66021158  1.0
  Ti  Ti5024  1  0.83303993  0.49737001  0.66021158  1.0
  Ti  Ti5025  1  0.83303993  0.66403668  0.66021158  1.0
  Ti  Ti5026  1  0.83303993  0.83070335  0.66021158  1.0
  Ti  Ti5027  1  0.83303993  0.99737001  0.66021158  1.0
  Ti  Ti5028  1  0.91637326  0.16403668  0.66021158  1.0
  Ti  Ti5029  1  0.91637326  0.33070335  0.66021158  1.0
  Ti  Ti5030  1  0.91637326  0.49737001  0.66021158  1.0
  Ti  Ti5031  1  0.91637326  0.66403668  0.66021158  1.0
  Ti  Ti5032  1  0.91637326  0.83070335  0.66021158  1.0
  Ti  Ti5033  1  0.91637326  0.99737001  0.66021158  1.0
  Ti  Ti5034  1  0.99970660  0.16403668  0.66021158  1.0
  Ti  Ti5035  1  0.99970660  0.33070335  0.66021158  1.0
  Ti  Ti5036  1  0.99970660  0.49737001  0.66021158  1.0
  Ti  Ti5037  1  0.99970660  0.66403668  0.66021158  1.0
  Ti  Ti5038  1  0.99970660  0.83070335  0.66021158  1.0
  Ti  Ti5039  1  0.99970660  0.99737001  0.66021158  1.0
  Ti  Ti5040  1  0.05923041  0.15213192  0.73164015  1.0
  Ti  Ti5041  1  0.05923041  0.31879858  0.73164015  1.0
  Ti  Ti5042  1  0.05923041  0.48546525  0.73164015  1.0
  Ti  Ti5043  1  0.05923041  0.65213192  0.73164015  1.0
  Ti  Ti5044  1  0.05923041  0.81879858  0.73164015  1.0
  Ti  Ti5045  1  0.05923041  0.98546525  0.73164015  1.0
  Ti  Ti5046  1  0.14256374  0.15213192  0.73164015  1.0
  Ti  Ti5047  1  0.14256374  0.31879858  0.73164015  1.0
  Ti  Ti5048  1  0.14256374  0.48546525  0.73164015  1.0
  Ti  Ti5049  1  0.14256374  0.65213192  0.73164015  1.0
  Ti  Ti5050  1  0.14256374  0.81879858  0.73164015  1.0
  Ti  Ti5051  1  0.14256374  0.98546525  0.73164015  1.0
  Ti  Ti5052  1  0.22589707  0.15213192  0.73164015  1.0
  Ti  Ti5053  1  0.22589707  0.31879858  0.73164015  1.0
  Ti  Ti5054  1  0.22589707  0.48546525  0.73164015  1.0
  Ti  Ti5055  1  0.22589707  0.65213192  0.73164015  1.0
  Ti  Ti5056  1  0.22589707  0.81879858  0.73164015  1.0
  Ti  Ti5057  1  0.22589707  0.98546525  0.73164015  1.0
  Ti  Ti5058  1  0.30923041  0.15213192  0.73164015  1.0
  Ti  Ti5059  1  0.30923041  0.31879858  0.73164015  1.0
  Ti  Ti5060  1  0.30923041  0.48546525  0.73164015  1.0
  Ti  Ti5061  1  0.30923041  0.65213192  0.73164015  1.0
  Ti  Ti5062  1  0.30923041  0.81879858  0.73164015  1.0
  Ti  Ti5063  1  0.30923041  0.98546525  0.73164015  1.0
  Ti  Ti5064  1  0.39256374  0.15213192  0.73164015  1.0
  Ti  Ti5065  1  0.39256374  0.31879858  0.73164015  1.0
  Ti  Ti5066  1  0.39256374  0.48546525  0.73164015  1.0
  Ti  Ti5067  1  0.39256374  0.65213192  0.73164015  1.0
  Ti  Ti5068  1  0.39256374  0.81879858  0.73164015  1.0
  Ti  Ti5069  1  0.39256374  0.98546525  0.73164015  1.0
  Ti  Ti5070  1  0.47589707  0.15213192  0.73164015  1.0
  Ti  Ti5071  1  0.47589707  0.31879858  0.73164015  1.0
  Ti  Ti5072  1  0.47589707  0.48546525  0.73164015  1.0
  Ti  Ti5073  1  0.47589707  0.65213192  0.73164015  1.0
  Ti  Ti5074  1  0.47589707  0.81879858  0.73164015  1.0
  Ti  Ti5075  1  0.47589707  0.98546525  0.73164015  1.0
  Ti  Ti5076  1  0.55923041  0.15213192  0.73164015  1.0
  Ti  Ti5077  1  0.55923041  0.31879858  0.73164015  1.0
  Ti  Ti5078  1  0.55923041  0.48546525  0.73164015  1.0
  Ti  Ti5079  1  0.55923041  0.65213192  0.73164015  1.0
  Ti  Ti5080  1  0.55923041  0.81879858  0.73164015  1.0
  Ti  Ti5081  1  0.55923041  0.98546525  0.73164015  1.0
  Ti  Ti5082  1  0.64256374  0.15213192  0.73164015  1.0
  Ti  Ti5083  1  0.64256374  0.31879858  0.73164015  1.0
  Ti  Ti5084  1  0.64256374  0.48546525  0.73164015  1.0
  Ti  Ti5085  1  0.64256374  0.65213192  0.73164015  1.0
  Ti  Ti5086  1  0.64256374  0.81879858  0.73164015  1.0
  Ti  Ti5087  1  0.64256374  0.98546525  0.73164015  1.0
  Ti  Ti5088  1  0.72589707  0.15213192  0.73164015  1.0
  Ti  Ti5089  1  0.72589707  0.31879858  0.73164015  1.0
  Ti  Ti5090  1  0.72589707  0.48546525  0.73164015  1.0
  Ti  Ti5091  1  0.72589707  0.65213192  0.73164015  1.0
  Ti  Ti5092  1  0.72589707  0.81879858  0.73164015  1.0
  Ti  Ti5093  1  0.72589707  0.98546525  0.73164015  1.0
  Ti  Ti5094  1  0.80923041  0.15213192  0.73164015  1.0
  Ti  Ti5095  1  0.80923041  0.31879858  0.73164015  1.0
  Ti  Ti5096  1  0.80923041  0.48546525  0.73164015  1.0
  Ti  Ti5097  1  0.80923041  0.65213192  0.73164015  1.0
  Ti  Ti5098  1  0.80923041  0.81879858  0.73164015  1.0
  Ti  Ti5099  1  0.80923041  0.98546525  0.73164015  1.0
  Ti  Ti5100  1  0.89256374  0.15213192  0.73164015  1.0
  Ti  Ti5101  1  0.89256374  0.31879858  0.73164015  1.0
  Ti  Ti5102  1  0.89256374  0.48546525  0.73164015  1.0
  Ti  Ti5103  1  0.89256374  0.65213192  0.73164015  1.0
  Ti  Ti5104  1  0.89256374  0.81879858  0.73164015  1.0
  Ti  Ti5105  1  0.89256374  0.98546525  0.73164015  1.0
  Ti  Ti5106  1  0.97589707  0.15213192  0.73164015  1.0
  Ti  Ti5107  1  0.97589707  0.31879858  0.73164015  1.0
  Ti  Ti5108  1  0.97589707  0.48546525  0.73164015  1.0
  Ti  Ti5109  1  0.97589707  0.65213192  0.73164015  1.0
  Ti  Ti5110  1  0.97589707  0.81879858  0.73164015  1.0
  Ti  Ti5111  1  0.97589707  0.98546525  0.73164015  1.0
  Ti  Ti5112  1  0.04651611  0.09773731  0.64421438  1.0
  Ti  Ti5113  1  0.04651611  0.26440398  0.64421438  1.0
  Ti  Ti5114  1  0.04651611  0.43107064  0.64421438  1.0
  Ti  Ti5115  1  0.04651611  0.59773731  0.64421438  1.0
  Ti  Ti5116  1  0.04651611  0.76440398  0.64421438  1.0
  Ti  Ti5117  1  0.04651611  0.93107064  0.64421438  1.0
  Ti  Ti5118  1  0.12984944  0.09773731  0.64421438  1.0
  Ti  Ti5119  1  0.12984944  0.26440398  0.64421438  1.0
  Ti  Ti5120  1  0.12984944  0.43107064  0.64421438  1.0
  Ti  Ti5121  1  0.12984944  0.59773731  0.64421438  1.0
  Ti  Ti5122  1  0.12984944  0.76440398  0.64421438  1.0
  Ti  Ti5123  1  0.12984944  0.93107064  0.64421438  1.0
  Ti  Ti5124  1  0.21318278  0.09773731  0.64421438  1.0
  Ti  Ti5125  1  0.21318278  0.26440398  0.64421438  1.0
  Ti  Ti5126  1  0.21318278  0.43107064  0.64421438  1.0
  Ti  Ti5127  1  0.21318278  0.59773731  0.64421438  1.0
  Ti  Ti5128  1  0.21318278  0.76440398  0.64421438  1.0
  Ti  Ti5129  1  0.21318278  0.93107064  0.64421438  1.0
  Ti  Ti5130  1  0.29651611  0.09773731  0.64421438  1.0
  Ti  Ti5131  1  0.29651611  0.26440398  0.64421438  1.0
  Ti  Ti5132  1  0.29651611  0.43107064  0.64421438  1.0
  Ti  Ti5133  1  0.29651611  0.59773731  0.64421438  1.0
  Ti  Ti5134  1  0.29651611  0.76440398  0.64421438  1.0
  Ti  Ti5135  1  0.29651611  0.93107064  0.64421438  1.0
  Ti  Ti5136  1  0.37984944  0.09773731  0.64421438  1.0
  Ti  Ti5137  1  0.37984944  0.26440398  0.64421438  1.0
  Ti  Ti5138  1  0.37984944  0.43107064  0.64421438  1.0
  Ti  Ti5139  1  0.37984944  0.59773731  0.64421438  1.0
  Ti  Ti5140  1  0.37984944  0.76440398  0.64421438  1.0
  Ti  Ti5141  1  0.37984944  0.93107064  0.64421438  1.0
  Ti  Ti5142  1  0.46318278  0.09773731  0.64421438  1.0
  Ti  Ti5143  1  0.46318278  0.26440398  0.64421438  1.0
  Ti  Ti5144  1  0.46318278  0.43107064  0.64421438  1.0
  Ti  Ti5145  1  0.46318278  0.59773731  0.64421438  1.0
  Ti  Ti5146  1  0.46318278  0.76440398  0.64421438  1.0
  Ti  Ti5147  1  0.46318278  0.93107064  0.64421438  1.0
  Ti  Ti5148  1  0.54651611  0.09773731  0.64421438  1.0
  Ti  Ti5149  1  0.54651611  0.26440398  0.64421438  1.0
  Ti  Ti5150  1  0.54651611  0.43107064  0.64421438  1.0
  Ti  Ti5151  1  0.54651611  0.59773731  0.64421438  1.0
  Ti  Ti5152  1  0.54651611  0.76440398  0.64421438  1.0
  Ti  Ti5153  1  0.54651611  0.93107064  0.64421438  1.0
  Ti  Ti5154  1  0.62984944  0.09773731  0.64421438  1.0
  Ti  Ti5155  1  0.62984944  0.26440398  0.64421438  1.0
  Ti  Ti5156  1  0.62984944  0.43107064  0.64421438  1.0
  Ti  Ti5157  1  0.62984944  0.59773731  0.64421438  1.0
  Ti  Ti5158  1  0.62984944  0.76440398  0.64421438  1.0
  Ti  Ti5159  1  0.62984944  0.93107064  0.64421438  1.0
  Ti  Ti5160  1  0.71318278  0.09773731  0.64421438  1.0
  Ti  Ti5161  1  0.71318278  0.26440398  0.64421438  1.0
  Ti  Ti5162  1  0.71318278  0.43107064  0.64421438  1.0
  Ti  Ti5163  1  0.71318278  0.59773731  0.64421438  1.0
  Ti  Ti5164  1  0.71318278  0.76440398  0.64421438  1.0
  Ti  Ti5165  1  0.71318278  0.93107064  0.64421438  1.0
  Ti  Ti5166  1  0.79651611  0.09773731  0.64421438  1.0
  Ti  Ti5167  1  0.79651611  0.26440398  0.64421438  1.0
  Ti  Ti5168  1  0.79651611  0.43107064  0.64421438  1.0
  Ti  Ti5169  1  0.79651611  0.59773731  0.64421438  1.0
  Ti  Ti5170  1  0.79651611  0.76440398  0.64421438  1.0
  Ti  Ti5171  1  0.79651611  0.93107064  0.64421438  1.0
  Ti  Ti5172  1  0.87984944  0.09773731  0.64421438  1.0
  Ti  Ti5173  1  0.87984944  0.26440398  0.64421438  1.0
  Ti  Ti5174  1  0.87984944  0.43107064  0.64421438  1.0
  Ti  Ti5175  1  0.87984944  0.59773731  0.64421438  1.0
  Ti  Ti5176  1  0.87984944  0.76440398  0.64421438  1.0
  Ti  Ti5177  1  0.87984944  0.93107064  0.64421438  1.0
  Ti  Ti5178  1  0.96318278  0.09773731  0.64421438  1.0
  Ti  Ti5179  1  0.96318278  0.26440398  0.64421438  1.0
  Ti  Ti5180  1  0.96318278  0.43107064  0.64421438  1.0
  Ti  Ti5181  1  0.96318278  0.59773731  0.64421438  1.0
  Ti  Ti5182  1  0.96318278  0.76440398  0.64421438  1.0
  Ti  Ti5183  1  0.96318278  0.93107064  0.64421438  1.0
  Ti  Ti5184  1  0.02270659  0.08583255  0.71564296  1.0
  Ti  Ti5185  1  0.02270659  0.25249922  0.71564296  1.0
  Ti  Ti5186  1  0.02270659  0.41916588  0.71564296  1.0
  Ti  Ti5187  1  0.02270659  0.58583255  0.71564296  1.0
  Ti  Ti5188  1  0.02270659  0.75249922  0.71564296  1.0
  Ti  Ti5189  1  0.02270659  0.91916588  0.71564296  1.0
  Ti  Ti5190  1  0.10603992  0.08583255  0.71564296  1.0
  Ti  Ti5191  1  0.10603992  0.25249922  0.71564296  1.0
  Ti  Ti5192  1  0.10603992  0.41916588  0.71564296  1.0
  Ti  Ti5193  1  0.10603992  0.58583255  0.71564296  1.0
  Ti  Ti5194  1  0.10603992  0.75249922  0.71564296  1.0
  Ti  Ti5195  1  0.10603992  0.91916588  0.71564296  1.0
  Ti  Ti5196  1  0.18937325  0.08583255  0.71564296  1.0
  Ti  Ti5197  1  0.18937325  0.25249922  0.71564296  1.0
  Ti  Ti5198  1  0.18937325  0.41916588  0.71564296  1.0
  Ti  Ti5199  1  0.18937325  0.58583255  0.71564296  1.0
  Ti  Ti5200  1  0.18937325  0.75249922  0.71564296  1.0
  Ti  Ti5201  1  0.18937325  0.91916588  0.71564296  1.0
  Ti  Ti5202  1  0.27270659  0.08583255  0.71564296  1.0
  Ti  Ti5203  1  0.27270659  0.25249922  0.71564296  1.0
  Ti  Ti5204  1  0.27270659  0.41916588  0.71564296  1.0
  Ti  Ti5205  1  0.27270659  0.58583255  0.71564296  1.0
  Ti  Ti5206  1  0.27270659  0.75249922  0.71564296  1.0
  Ti  Ti5207  1  0.27270659  0.91916588  0.71564296  1.0
  Ti  Ti5208  1  0.35603992  0.08583255  0.71564296  1.0
  Ti  Ti5209  1  0.35603992  0.25249922  0.71564296  1.0
  Ti  Ti5210  1  0.35603992  0.41916588  0.71564296  1.0
  Ti  Ti5211  1  0.35603992  0.58583255  0.71564296  1.0
  Ti  Ti5212  1  0.35603992  0.75249922  0.71564296  1.0
  Ti  Ti5213  1  0.35603992  0.91916588  0.71564296  1.0
  Ti  Ti5214  1  0.43937325  0.08583255  0.71564296  1.0
  Ti  Ti5215  1  0.43937325  0.25249922  0.71564296  1.0
  Ti  Ti5216  1  0.43937325  0.41916588  0.71564296  1.0
  Ti  Ti5217  1  0.43937325  0.58583255  0.71564296  1.0
  Ti  Ti5218  1  0.43937325  0.75249922  0.71564296  1.0
  Ti  Ti5219  1  0.43937325  0.91916588  0.71564296  1.0
  Ti  Ti5220  1  0.52270659  0.08583255  0.71564296  1.0
  Ti  Ti5221  1  0.52270659  0.25249922  0.71564296  1.0
  Ti  Ti5222  1  0.52270659  0.41916588  0.71564296  1.0
  Ti  Ti5223  1  0.52270659  0.58583255  0.71564296  1.0
  Ti  Ti5224  1  0.52270659  0.75249922  0.71564296  1.0
  Ti  Ti5225  1  0.52270659  0.91916588  0.71564296  1.0
  Ti  Ti5226  1  0.60603992  0.08583255  0.71564296  1.0
  Ti  Ti5227  1  0.60603992  0.25249922  0.71564296  1.0
  Ti  Ti5228  1  0.60603992  0.41916588  0.71564296  1.0
  Ti  Ti5229  1  0.60603992  0.58583255  0.71564296  1.0
  Ti  Ti5230  1  0.60603992  0.75249922  0.71564296  1.0
  Ti  Ti5231  1  0.60603992  0.91916588  0.71564296  1.0
  Ti  Ti5232  1  0.68937325  0.08583255  0.71564296  1.0
  Ti  Ti5233  1  0.68937325  0.25249922  0.71564296  1.0
  Ti  Ti5234  1  0.68937325  0.41916588  0.71564296  1.0
  Ti  Ti5235  1  0.68937325  0.58583255  0.71564296  1.0
  Ti  Ti5236  1  0.68937325  0.75249922  0.71564296  1.0
  Ti  Ti5237  1  0.68937325  0.91916588  0.71564296  1.0
  Ti  Ti5238  1  0.77270659  0.08583255  0.71564296  1.0
  Ti  Ti5239  1  0.77270659  0.25249922  0.71564296  1.0
  Ti  Ti5240  1  0.77270659  0.41916588  0.71564296  1.0
  Ti  Ti5241  1  0.77270659  0.58583255  0.71564296  1.0
  Ti  Ti5242  1  0.77270659  0.75249922  0.71564296  1.0
  Ti  Ti5243  1  0.77270659  0.91916588  0.71564296  1.0
  Ti  Ti5244  1  0.85603992  0.08583255  0.71564296  1.0
  Ti  Ti5245  1  0.85603992  0.25249922  0.71564296  1.0
  Ti  Ti5246  1  0.85603992  0.41916588  0.71564296  1.0
  Ti  Ti5247  1  0.85603992  0.58583255  0.71564296  1.0
  Ti  Ti5248  1  0.85603992  0.75249922  0.71564296  1.0
  Ti  Ti5249  1  0.85603992  0.91916588  0.71564296  1.0
  Ti  Ti5250  1  0.93937325  0.08583255  0.71564296  1.0
  Ti  Ti5251  1  0.93937325  0.25249922  0.71564296  1.0
  Ti  Ti5252  1  0.93937325  0.41916588  0.71564296  1.0
  Ti  Ti5253  1  0.93937325  0.58583255  0.71564296  1.0
  Ti  Ti5254  1  0.93937325  0.75249922  0.71564296  1.0
  Ti  Ti5255  1  0.93937325  0.91916588  0.71564296  1.0
  Ti  Ti5256  1  0.03493064  0.06721260  0.67708623  1.0
  Ti  Ti5257  1  0.03493064  0.23387927  0.67708623  1.0
  Ti  Ti5258  1  0.03493064  0.40054594  0.67708623  1.0
  Ti  Ti5259  1  0.03493064  0.56721260  0.67708623  1.0
  Ti  Ti5260  1  0.03493064  0.73387927  0.67708623  1.0
  Ti  Ti5261  1  0.03493064  0.90054594  0.67708623  1.0
  Ti  Ti5262  1  0.11826398  0.06721260  0.67708623  1.0
  Ti  Ti5263  1  0.11826398  0.23387927  0.67708623  1.0
  Ti  Ti5264  1  0.11826398  0.40054594  0.67708623  1.0
  Ti  Ti5265  1  0.11826398  0.56721260  0.67708623  1.0
  Ti  Ti5266  1  0.11826398  0.73387927  0.67708623  1.0
  Ti  Ti5267  1  0.11826398  0.90054594  0.67708623  1.0
  Ti  Ti5268  1  0.20159731  0.06721260  0.67708623  1.0
  Ti  Ti5269  1  0.20159731  0.23387927  0.67708623  1.0
  Ti  Ti5270  1  0.20159731  0.40054594  0.67708623  1.0
  Ti  Ti5271  1  0.20159731  0.56721260  0.67708623  1.0
  Ti  Ti5272  1  0.20159731  0.73387927  0.67708623  1.0
  Ti  Ti5273  1  0.20159731  0.90054594  0.67708623  1.0
  Ti  Ti5274  1  0.28493064  0.06721260  0.67708623  1.0
  Ti  Ti5275  1  0.28493064  0.23387927  0.67708623  1.0
  Ti  Ti5276  1  0.28493064  0.40054594  0.67708623  1.0
  Ti  Ti5277  1  0.28493064  0.56721260  0.67708623  1.0
  Ti  Ti5278  1  0.28493064  0.73387927  0.67708623  1.0
  Ti  Ti5279  1  0.28493064  0.90054594  0.67708623  1.0
  Ti  Ti5280  1  0.36826398  0.06721260  0.67708623  1.0
  Ti  Ti5281  1  0.36826398  0.23387927  0.67708623  1.0
  Ti  Ti5282  1  0.36826398  0.40054594  0.67708623  1.0
  Ti  Ti5283  1  0.36826398  0.56721260  0.67708623  1.0
  Ti  Ti5284  1  0.36826398  0.73387927  0.67708623  1.0
  Ti  Ti5285  1  0.36826398  0.90054594  0.67708623  1.0
  Ti  Ti5286  1  0.45159731  0.06721260  0.67708623  1.0
  Ti  Ti5287  1  0.45159731  0.23387927  0.67708623  1.0
  Ti  Ti5288  1  0.45159731  0.40054594  0.67708623  1.0
  Ti  Ti5289  1  0.45159731  0.56721260  0.67708623  1.0
  Ti  Ti5290  1  0.45159731  0.73387927  0.67708623  1.0
  Ti  Ti5291  1  0.45159731  0.90054594  0.67708623  1.0
  Ti  Ti5292  1  0.53493064  0.06721260  0.67708623  1.0
  Ti  Ti5293  1  0.53493064  0.23387927  0.67708623  1.0
  Ti  Ti5294  1  0.53493064  0.40054594  0.67708623  1.0
  Ti  Ti5295  1  0.53493064  0.56721260  0.67708623  1.0
  Ti  Ti5296  1  0.53493064  0.73387927  0.67708623  1.0
  Ti  Ti5297  1  0.53493064  0.90054594  0.67708623  1.0
  Ti  Ti5298  1  0.61826398  0.06721260  0.67708623  1.0
  Ti  Ti5299  1  0.61826398  0.23387927  0.67708623  1.0
  Ti  Ti5300  1  0.61826398  0.40054594  0.67708623  1.0
  Ti  Ti5301  1  0.61826398  0.56721260  0.67708623  1.0
  Ti  Ti5302  1  0.61826398  0.73387927  0.67708623  1.0
  Ti  Ti5303  1  0.61826398  0.90054594  0.67708623  1.0
  Ti  Ti5304  1  0.70159731  0.06721260  0.67708623  1.0
  Ti  Ti5305  1  0.70159731  0.23387927  0.67708623  1.0
  Ti  Ti5306  1  0.70159731  0.40054594  0.67708623  1.0
  Ti  Ti5307  1  0.70159731  0.56721260  0.67708623  1.0
  Ti  Ti5308  1  0.70159731  0.73387927  0.67708623  1.0
  Ti  Ti5309  1  0.70159731  0.90054594  0.67708623  1.0
  Ti  Ti5310  1  0.78493064  0.06721260  0.67708623  1.0
  Ti  Ti5311  1  0.78493064  0.23387927  0.67708623  1.0
  Ti  Ti5312  1  0.78493064  0.40054594  0.67708623  1.0
  Ti  Ti5313  1  0.78493064  0.56721260  0.67708623  1.0
  Ti  Ti5314  1  0.78493064  0.73387927  0.67708623  1.0
  Ti  Ti5315  1  0.78493064  0.90054594  0.67708623  1.0
  Ti  Ti5316  1  0.86826398  0.06721260  0.67708623  1.0
  Ti  Ti5317  1  0.86826398  0.23387927  0.67708623  1.0
  Ti  Ti5318  1  0.86826398  0.40054594  0.67708623  1.0
  Ti  Ti5319  1  0.86826398  0.56721260  0.67708623  1.0
  Ti  Ti5320  1  0.86826398  0.73387927  0.67708623  1.0
  Ti  Ti5321  1  0.86826398  0.90054594  0.67708623  1.0
  Ti  Ti5322  1  0.95159731  0.06721260  0.67708623  1.0
  Ti  Ti5323  1  0.95159731  0.23387927  0.67708623  1.0
  Ti  Ti5324  1  0.95159731  0.40054594  0.67708623  1.0
  Ti  Ti5325  1  0.95159731  0.56721260  0.67708623  1.0
  Ti  Ti5326  1  0.95159731  0.73387927  0.67708623  1.0
  Ti  Ti5327  1  0.95159731  0.90054594  0.67708623  1.0
  Ti  Ti5328  1  0.03702218  0.01719482  0.66582982  1.0
  Ti  Ti5329  1  0.03702218  0.18386149  0.66582982  1.0
  Ti  Ti5330  1  0.03702218  0.35052815  0.66582982  1.0
  Ti  Ti5331  1  0.03702218  0.51719482  0.66582982  1.0
  Ti  Ti5332  1  0.03702218  0.68386149  0.66582982  1.0
  Ti  Ti5333  1  0.03702218  0.85052815  0.66582982  1.0
  Ti  Ti5334  1  0.12035551  0.01719482  0.66582982  1.0
  Ti  Ti5335  1  0.12035551  0.18386149  0.66582982  1.0
  Ti  Ti5336  1  0.12035551  0.35052815  0.66582982  1.0
  Ti  Ti5337  1  0.12035551  0.51719482  0.66582982  1.0
  Ti  Ti5338  1  0.12035551  0.68386149  0.66582982  1.0
  Ti  Ti5339  1  0.12035551  0.85052815  0.66582982  1.0
  Ti  Ti5340  1  0.20368885  0.01719482  0.66582982  1.0
  Ti  Ti5341  1  0.20368885  0.18386149  0.66582982  1.0
  Ti  Ti5342  1  0.20368885  0.35052815  0.66582982  1.0
  Ti  Ti5343  1  0.20368885  0.51719482  0.66582982  1.0
  Ti  Ti5344  1  0.20368885  0.68386149  0.66582982  1.0
  Ti  Ti5345  1  0.20368885  0.85052815  0.66582982  1.0
  Ti  Ti5346  1  0.28702218  0.01719482  0.66582982  1.0
  Ti  Ti5347  1  0.28702218  0.18386149  0.66582982  1.0
  Ti  Ti5348  1  0.28702218  0.35052815  0.66582982  1.0
  Ti  Ti5349  1  0.28702218  0.51719482  0.66582982  1.0
  Ti  Ti5350  1  0.28702218  0.68386149  0.66582982  1.0
  Ti  Ti5351  1  0.28702218  0.85052815  0.66582982  1.0
  Ti  Ti5352  1  0.37035551  0.01719482  0.66582982  1.0
  Ti  Ti5353  1  0.37035551  0.18386149  0.66582982  1.0
  Ti  Ti5354  1  0.37035551  0.35052815  0.66582982  1.0
  Ti  Ti5355  1  0.37035551  0.51719482  0.66582982  1.0
  Ti  Ti5356  1  0.37035551  0.68386149  0.66582982  1.0
  Ti  Ti5357  1  0.37035551  0.85052815  0.66582982  1.0
  Ti  Ti5358  1  0.45368885  0.01719482  0.66582982  1.0
  Ti  Ti5359  1  0.45368885  0.18386149  0.66582982  1.0
  Ti  Ti5360  1  0.45368885  0.35052815  0.66582982  1.0
  Ti  Ti5361  1  0.45368885  0.51719482  0.66582982  1.0
  Ti  Ti5362  1  0.45368885  0.68386149  0.66582982  1.0
  Ti  Ti5363  1  0.45368885  0.85052815  0.66582982  1.0
  Ti  Ti5364  1  0.53702218  0.01719482  0.66582982  1.0
  Ti  Ti5365  1  0.53702218  0.18386149  0.66582982  1.0
  Ti  Ti5366  1  0.53702218  0.35052815  0.66582982  1.0
  Ti  Ti5367  1  0.53702218  0.51719482  0.66582982  1.0
  Ti  Ti5368  1  0.53702218  0.68386149  0.66582982  1.0
  Ti  Ti5369  1  0.53702218  0.85052815  0.66582982  1.0
  Ti  Ti5370  1  0.62035551  0.01719482  0.66582982  1.0
  Ti  Ti5371  1  0.62035551  0.18386149  0.66582982  1.0
  Ti  Ti5372  1  0.62035551  0.35052815  0.66582982  1.0
  Ti  Ti5373  1  0.62035551  0.51719482  0.66582982  1.0
  Ti  Ti5374  1  0.62035551  0.68386149  0.66582982  1.0
  Ti  Ti5375  1  0.62035551  0.85052815  0.66582982  1.0
  Ti  Ti5376  1  0.70368885  0.01719482  0.66582982  1.0
  Ti  Ti5377  1  0.70368885  0.18386149  0.66582982  1.0
  Ti  Ti5378  1  0.70368885  0.35052815  0.66582982  1.0
  Ti  Ti5379  1  0.70368885  0.51719482  0.66582982  1.0
  Ti  Ti5380  1  0.70368885  0.68386149  0.66582982  1.0
  Ti  Ti5381  1  0.70368885  0.85052815  0.66582982  1.0
  Ti  Ti5382  1  0.78702218  0.01719482  0.66582982  1.0
  Ti  Ti5383  1  0.78702218  0.18386149  0.66582982  1.0
  Ti  Ti5384  1  0.78702218  0.35052815  0.66582982  1.0
  Ti  Ti5385  1  0.78702218  0.51719482  0.66582982  1.0
  Ti  Ti5386  1  0.78702218  0.68386149  0.66582982  1.0
  Ti  Ti5387  1  0.78702218  0.85052815  0.66582982  1.0
  Ti  Ti5388  1  0.87035551  0.01719482  0.66582982  1.0
  Ti  Ti5389  1  0.87035551  0.18386149  0.66582982  1.0
  Ti  Ti5390  1  0.87035551  0.35052815  0.66582982  1.0
  Ti  Ti5391  1  0.87035551  0.51719482  0.66582982  1.0
  Ti  Ti5392  1  0.87035551  0.68386149  0.66582982  1.0
  Ti  Ti5393  1  0.87035551  0.85052815  0.66582982  1.0
  Ti  Ti5394  1  0.95368885  0.01719482  0.66582982  1.0
  Ti  Ti5395  1  0.95368885  0.18386149  0.66582982  1.0
  Ti  Ti5396  1  0.95368885  0.35052815  0.66582982  1.0
  Ti  Ti5397  1  0.95368885  0.51719482  0.66582982  1.0
  Ti  Ti5398  1  0.95368885  0.68386149  0.66582982  1.0
  Ti  Ti5399  1  0.95368885  0.85052815  0.66582982  1.0
  Ti  Ti5400  1  0.01321266  0.00529006  0.73725839  1.0
  Ti  Ti5401  1  0.01321266  0.17195673  0.73725839  1.0
  Ti  Ti5402  1  0.01321266  0.33862339  0.73725839  1.0
  Ti  Ti5403  1  0.01321266  0.50529006  0.73725839  1.0
  Ti  Ti5404  1  0.01321266  0.67195673  0.73725839  1.0
  Ti  Ti5405  1  0.01321266  0.83862339  0.73725839  1.0
  Ti  Ti5406  1  0.09654599  0.00529006  0.73725839  1.0
  Ti  Ti5407  1  0.09654599  0.17195673  0.73725839  1.0
  Ti  Ti5408  1  0.09654599  0.33862339  0.73725839  1.0
  Ti  Ti5409  1  0.09654599  0.50529006  0.73725839  1.0
  Ti  Ti5410  1  0.09654599  0.67195673  0.73725839  1.0
  Ti  Ti5411  1  0.09654599  0.83862339  0.73725839  1.0
  Ti  Ti5412  1  0.17987932  0.00529006  0.73725839  1.0
  Ti  Ti5413  1  0.17987932  0.17195673  0.73725839  1.0
  Ti  Ti5414  1  0.17987932  0.33862339  0.73725839  1.0
  Ti  Ti5415  1  0.17987932  0.50529006  0.73725839  1.0
  Ti  Ti5416  1  0.17987932  0.67195673  0.73725839  1.0
  Ti  Ti5417  1  0.17987932  0.83862339  0.73725839  1.0
  Ti  Ti5418  1  0.26321266  0.00529006  0.73725839  1.0
  Ti  Ti5419  1  0.26321266  0.17195673  0.73725839  1.0
  Ti  Ti5420  1  0.26321266  0.33862339  0.73725839  1.0
  Ti  Ti5421  1  0.26321266  0.50529006  0.73725839  1.0
  Ti  Ti5422  1  0.26321266  0.67195673  0.73725839  1.0
  Ti  Ti5423  1  0.26321266  0.83862339  0.73725839  1.0
  Ti  Ti5424  1  0.34654599  0.00529006  0.73725839  1.0
  Ti  Ti5425  1  0.34654599  0.17195673  0.73725839  1.0
  Ti  Ti5426  1  0.34654599  0.33862339  0.73725839  1.0
  Ti  Ti5427  1  0.34654599  0.50529006  0.73725839  1.0
  Ti  Ti5428  1  0.34654599  0.67195673  0.73725839  1.0
  Ti  Ti5429  1  0.34654599  0.83862339  0.73725839  1.0
  Ti  Ti5430  1  0.42987932  0.00529006  0.73725839  1.0
  Ti  Ti5431  1  0.42987932  0.17195673  0.73725839  1.0
  Ti  Ti5432  1  0.42987932  0.33862339  0.73725839  1.0
  Ti  Ti5433  1  0.42987932  0.50529006  0.73725839  1.0
  Ti  Ti5434  1  0.42987932  0.67195673  0.73725839  1.0
  Ti  Ti5435  1  0.42987932  0.83862339  0.73725839  1.0
  Ti  Ti5436  1  0.51321266  0.00529006  0.73725839  1.0
  Ti  Ti5437  1  0.51321266  0.17195673  0.73725839  1.0
  Ti  Ti5438  1  0.51321266  0.33862339  0.73725839  1.0
  Ti  Ti5439  1  0.51321266  0.50529006  0.73725839  1.0
  Ti  Ti5440  1  0.51321266  0.67195673  0.73725839  1.0
  Ti  Ti5441  1  0.51321266  0.83862339  0.73725839  1.0
  Ti  Ti5442  1  0.59654599  0.00529006  0.73725839  1.0
  Ti  Ti5443  1  0.59654599  0.17195673  0.73725839  1.0
  Ti  Ti5444  1  0.59654599  0.33862339  0.73725839  1.0
  Ti  Ti5445  1  0.59654599  0.50529006  0.73725839  1.0
  Ti  Ti5446  1  0.59654599  0.67195673  0.73725839  1.0
  Ti  Ti5447  1  0.59654599  0.83862339  0.73725839  1.0
  Ti  Ti5448  1  0.67987932  0.00529006  0.73725839  1.0
  Ti  Ti5449  1  0.67987932  0.17195673  0.73725839  1.0
  Ti  Ti5450  1  0.67987932  0.33862339  0.73725839  1.0
  Ti  Ti5451  1  0.67987932  0.50529006  0.73725839  1.0
  Ti  Ti5452  1  0.67987932  0.67195673  0.73725839  1.0
  Ti  Ti5453  1  0.67987932  0.83862339  0.73725839  1.0
  Ti  Ti5454  1  0.76321266  0.00529006  0.73725839  1.0
  Ti  Ti5455  1  0.76321266  0.17195673  0.73725839  1.0
  Ti  Ti5456  1  0.76321266  0.33862339  0.73725839  1.0
  Ti  Ti5457  1  0.76321266  0.50529006  0.73725839  1.0
  Ti  Ti5458  1  0.76321266  0.67195673  0.73725839  1.0
  Ti  Ti5459  1  0.76321266  0.83862339  0.73725839  1.0
  Ti  Ti5460  1  0.84654599  0.00529006  0.73725839  1.0
  Ti  Ti5461  1  0.84654599  0.17195673  0.73725839  1.0
  Ti  Ti5462  1  0.84654599  0.33862339  0.73725839  1.0
  Ti  Ti5463  1  0.84654599  0.50529006  0.73725839  1.0
  Ti  Ti5464  1  0.84654599  0.67195673  0.73725839  1.0
  Ti  Ti5465  1  0.84654599  0.83862339  0.73725839  1.0
  Ti  Ti5466  1  0.92987932  0.00529006  0.73725839  1.0
  Ti  Ti5467  1  0.92987932  0.17195673  0.73725839  1.0
  Ti  Ti5468  1  0.92987932  0.33862339  0.73725839  1.0
  Ti  Ti5469  1  0.92987932  0.50529006  0.73725839  1.0
  Ti  Ti5470  1  0.92987932  0.67195673  0.73725839  1.0
  Ti  Ti5471  1  0.92987932  0.83862339  0.73725839  1.0
  Ti  Ti5472  1  0.07152401  0.13482213  0.69071800  1.0
  Ti  Ti5473  1  0.07152401  0.30148879  0.69071800  1.0
  Ti  Ti5474  1  0.07152401  0.46815546  0.69071800  1.0
  Ti  Ti5475  1  0.07152401  0.63482213  0.69071800  1.0
  Ti  Ti5476  1  0.07152401  0.80148879  0.69071800  1.0
  Ti  Ti5477  1  0.07152401  0.96815546  0.69071800  1.0
  Ti  Ti5478  1  0.15485735  0.13482213  0.69071800  1.0
  Ti  Ti5479  1  0.15485735  0.30148879  0.69071800  1.0
  Ti  Ti5480  1  0.15485735  0.46815546  0.69071800  1.0
  Ti  Ti5481  1  0.15485735  0.63482213  0.69071800  1.0
  Ti  Ti5482  1  0.15485735  0.80148879  0.69071800  1.0
  Ti  Ti5483  1  0.15485735  0.96815546  0.69071800  1.0
  Ti  Ti5484  1  0.23819068  0.13482213  0.69071800  1.0
  Ti  Ti5485  1  0.23819068  0.30148879  0.69071800  1.0
  Ti  Ti5486  1  0.23819068  0.46815546  0.69071800  1.0
  Ti  Ti5487  1  0.23819068  0.63482213  0.69071800  1.0
  Ti  Ti5488  1  0.23819068  0.80148879  0.69071800  1.0
  Ti  Ti5489  1  0.23819068  0.96815546  0.69071800  1.0
  Ti  Ti5490  1  0.32152401  0.13482213  0.69071800  1.0
  Ti  Ti5491  1  0.32152401  0.30148879  0.69071800  1.0
  Ti  Ti5492  1  0.32152401  0.46815546  0.69071800  1.0
  Ti  Ti5493  1  0.32152401  0.63482213  0.69071800  1.0
  Ti  Ti5494  1  0.32152401  0.80148879  0.69071800  1.0
  Ti  Ti5495  1  0.32152401  0.96815546  0.69071800  1.0
  Ti  Ti5496  1  0.40485735  0.13482213  0.69071800  1.0
  Ti  Ti5497  1  0.40485735  0.30148879  0.69071800  1.0
  Ti  Ti5498  1  0.40485735  0.46815546  0.69071800  1.0
  Ti  Ti5499  1  0.40485735  0.63482213  0.69071800  1.0
  Ti  Ti5500  1  0.40485735  0.80148879  0.69071800  1.0
  Ti  Ti5501  1  0.40485735  0.96815546  0.69071800  1.0
  Ti  Ti5502  1  0.48819068  0.13482213  0.69071800  1.0
  Ti  Ti5503  1  0.48819068  0.30148879  0.69071800  1.0
  Ti  Ti5504  1  0.48819068  0.46815546  0.69071800  1.0
  Ti  Ti5505  1  0.48819068  0.63482213  0.69071800  1.0
  Ti  Ti5506  1  0.48819068  0.80148879  0.69071800  1.0
  Ti  Ti5507  1  0.48819068  0.96815546  0.69071800  1.0
  Ti  Ti5508  1  0.57152401  0.13482213  0.69071800  1.0
  Ti  Ti5509  1  0.57152401  0.30148879  0.69071800  1.0
  Ti  Ti5510  1  0.57152401  0.46815546  0.69071800  1.0
  Ti  Ti5511  1  0.57152401  0.63482213  0.69071800  1.0
  Ti  Ti5512  1  0.57152401  0.80148879  0.69071800  1.0
  Ti  Ti5513  1  0.57152401  0.96815546  0.69071800  1.0
  Ti  Ti5514  1  0.65485735  0.13482213  0.69071800  1.0
  Ti  Ti5515  1  0.65485735  0.30148879  0.69071800  1.0
  Ti  Ti5516  1  0.65485735  0.46815546  0.69071800  1.0
  Ti  Ti5517  1  0.65485735  0.63482213  0.69071800  1.0
  Ti  Ti5518  1  0.65485735  0.80148879  0.69071800  1.0
  Ti  Ti5519  1  0.65485735  0.96815546  0.69071800  1.0
  Ti  Ti5520  1  0.73819068  0.13482213  0.69071800  1.0
  Ti  Ti5521  1  0.73819068  0.30148879  0.69071800  1.0
  Ti  Ti5522  1  0.73819068  0.46815546  0.69071800  1.0
  Ti  Ti5523  1  0.73819068  0.63482213  0.69071800  1.0
  Ti  Ti5524  1  0.73819068  0.80148879  0.69071800  1.0
  Ti  Ti5525  1  0.73819068  0.96815546  0.69071800  1.0
  Ti  Ti5526  1  0.82152401  0.13482213  0.69071800  1.0
  Ti  Ti5527  1  0.82152401  0.30148879  0.69071800  1.0
  Ti  Ti5528  1  0.82152401  0.46815546  0.69071800  1.0
  Ti  Ti5529  1  0.82152401  0.63482213  0.69071800  1.0
  Ti  Ti5530  1  0.82152401  0.80148879  0.69071800  1.0
  Ti  Ti5531  1  0.82152401  0.96815546  0.69071800  1.0
  Ti  Ti5532  1  0.90485735  0.13482213  0.69071800  1.0
  Ti  Ti5533  1  0.90485735  0.30148879  0.69071800  1.0
  Ti  Ti5534  1  0.90485735  0.46815546  0.69071800  1.0
  Ti  Ti5535  1  0.90485735  0.63482213  0.69071800  1.0
  Ti  Ti5536  1  0.90485735  0.80148879  0.69071800  1.0
  Ti  Ti5537  1  0.90485735  0.96815546  0.69071800  1.0
  Ti  Ti5538  1  0.98819068  0.13482213  0.69071800  1.0
  Ti  Ti5539  1  0.98819068  0.30148879  0.69071800  1.0
  Ti  Ti5540  1  0.98819068  0.46815546  0.69071800  1.0
  Ti  Ti5541  1  0.98819068  0.63482213  0.69071800  1.0
  Ti  Ti5542  1  0.98819068  0.80148879  0.69071800  1.0
  Ti  Ti5543  1  0.98819068  0.96815546  0.69071800  1.0
  Ti  Ti5544  1  0.06453458  0.05940647  0.71011103  1.0
  Ti  Ti5545  1  0.06453458  0.22607314  0.71011103  1.0
  Ti  Ti5546  1  0.06453458  0.39273981  0.71011103  1.0
  Ti  Ti5547  1  0.06453458  0.55940647  0.71011103  1.0
  Ti  Ti5548  1  0.06453458  0.72607314  0.71011103  1.0
  Ti  Ti5549  1  0.06453458  0.89273981  0.71011103  1.0
  Ti  Ti5550  1  0.14786792  0.05940647  0.71011103  1.0
  Ti  Ti5551  1  0.14786792  0.22607314  0.71011103  1.0
  Ti  Ti5552  1  0.14786792  0.39273981  0.71011103  1.0
  Ti  Ti5553  1  0.14786792  0.55940647  0.71011103  1.0
  Ti  Ti5554  1  0.14786792  0.72607314  0.71011103  1.0
  Ti  Ti5555  1  0.14786792  0.89273981  0.71011103  1.0
  Ti  Ti5556  1  0.23120125  0.05940647  0.71011103  1.0
  Ti  Ti5557  1  0.23120125  0.22607314  0.71011103  1.0
  Ti  Ti5558  1  0.23120125  0.39273981  0.71011103  1.0
  Ti  Ti5559  1  0.23120125  0.55940647  0.71011103  1.0
  Ti  Ti5560  1  0.23120125  0.72607314  0.71011103  1.0
  Ti  Ti5561  1  0.23120125  0.89273981  0.71011103  1.0
  Ti  Ti5562  1  0.31453458  0.05940647  0.71011103  1.0
  Ti  Ti5563  1  0.31453458  0.22607314  0.71011103  1.0
  Ti  Ti5564  1  0.31453458  0.39273981  0.71011103  1.0
  Ti  Ti5565  1  0.31453458  0.55940647  0.71011103  1.0
  Ti  Ti5566  1  0.31453458  0.72607314  0.71011103  1.0
  Ti  Ti5567  1  0.31453458  0.89273981  0.71011103  1.0
  Ti  Ti5568  1  0.39786792  0.05940647  0.71011103  1.0
  Ti  Ti5569  1  0.39786792  0.22607314  0.71011103  1.0
  Ti  Ti5570  1  0.39786792  0.39273981  0.71011103  1.0
  Ti  Ti5571  1  0.39786792  0.55940647  0.71011103  1.0
  Ti  Ti5572  1  0.39786792  0.72607314  0.71011103  1.0
  Ti  Ti5573  1  0.39786792  0.89273981  0.71011103  1.0
  Ti  Ti5574  1  0.48120125  0.05940647  0.71011103  1.0
  Ti  Ti5575  1  0.48120125  0.22607314  0.71011103  1.0
  Ti  Ti5576  1  0.48120125  0.39273981  0.71011103  1.0
  Ti  Ti5577  1  0.48120125  0.55940647  0.71011103  1.0
  Ti  Ti5578  1  0.48120125  0.72607314  0.71011103  1.0
  Ti  Ti5579  1  0.48120125  0.89273981  0.71011103  1.0
  Ti  Ti5580  1  0.56453458  0.05940647  0.71011103  1.0
  Ti  Ti5581  1  0.56453458  0.22607314  0.71011103  1.0
  Ti  Ti5582  1  0.56453458  0.39273981  0.71011103  1.0
  Ti  Ti5583  1  0.56453458  0.55940647  0.71011103  1.0
  Ti  Ti5584  1  0.56453458  0.72607314  0.71011103  1.0
  Ti  Ti5585  1  0.56453458  0.89273981  0.71011103  1.0
  Ti  Ti5586  1  0.64786792  0.05940647  0.71011103  1.0
  Ti  Ti5587  1  0.64786792  0.22607314  0.71011103  1.0
  Ti  Ti5588  1  0.64786792  0.39273981  0.71011103  1.0
  Ti  Ti5589  1  0.64786792  0.55940647  0.71011103  1.0
  Ti  Ti5590  1  0.64786792  0.72607314  0.71011103  1.0
  Ti  Ti5591  1  0.64786792  0.89273981  0.71011103  1.0
  Ti  Ti5592  1  0.73120125  0.05940647  0.71011103  1.0
  Ti  Ti5593  1  0.73120125  0.22607314  0.71011103  1.0
  Ti  Ti5594  1  0.73120125  0.39273981  0.71011103  1.0
  Ti  Ti5595  1  0.73120125  0.55940647  0.71011103  1.0
  Ti  Ti5596  1  0.73120125  0.72607314  0.71011103  1.0
  Ti  Ti5597  1  0.73120125  0.89273981  0.71011103  1.0
  Ti  Ti5598  1  0.81453458  0.05940647  0.71011103  1.0
  Ti  Ti5599  1  0.81453458  0.22607314  0.71011103  1.0
  Ti  Ti5600  1  0.81453458  0.39273981  0.71011103  1.0
  Ti  Ti5601  1  0.81453458  0.55940647  0.71011103  1.0
  Ti  Ti5602  1  0.81453458  0.72607314  0.71011103  1.0
  Ti  Ti5603  1  0.81453458  0.89273981  0.71011103  1.0
  Ti  Ti5604  1  0.89786792  0.05940647  0.71011103  1.0
  Ti  Ti5605  1  0.89786792  0.22607314  0.71011103  1.0
  Ti  Ti5606  1  0.89786792  0.39273981  0.71011103  1.0
  Ti  Ti5607  1  0.89786792  0.55940647  0.71011103  1.0
  Ti  Ti5608  1  0.89786792  0.72607314  0.71011103  1.0
  Ti  Ti5609  1  0.89786792  0.89273981  0.71011103  1.0
  Ti  Ti5610  1  0.98120125  0.05940647  0.71011103  1.0
  Ti  Ti5611  1  0.98120125  0.22607314  0.71011103  1.0
  Ti  Ti5612  1  0.98120125  0.39273981  0.71011103  1.0
  Ti  Ti5613  1  0.98120125  0.55940647  0.71011103  1.0
  Ti  Ti5614  1  0.98120125  0.72607314  0.71011103  1.0
  Ti  Ti5615  1  0.98120125  0.89273981  0.71011103  1.0
  Ti  Ti5616  1  0.02799986  0.15853848  0.69441230  1.0
  Ti  Ti5617  1  0.02799986  0.32520515  0.69441230  1.0
  Ti  Ti5618  1  0.02799986  0.49187182  0.69441230  1.0
  Ti  Ti5619  1  0.02799986  0.65853848  0.69441230  1.0
  Ti  Ti5620  1  0.02799986  0.82520515  0.69441230  1.0
  Ti  Ti5621  1  0.02799986  0.99187182  0.69441230  1.0
  Ti  Ti5622  1  0.11133319  0.15853848  0.69441230  1.0
  Ti  Ti5623  1  0.11133319  0.32520515  0.69441230  1.0
  Ti  Ti5624  1  0.11133319  0.49187182  0.69441230  1.0
  Ti  Ti5625  1  0.11133319  0.65853848  0.69441230  1.0
  Ti  Ti5626  1  0.11133319  0.82520515  0.69441230  1.0
  Ti  Ti5627  1  0.11133319  0.99187182  0.69441230  1.0
  Ti  Ti5628  1  0.19466653  0.15853848  0.69441230  1.0
  Ti  Ti5629  1  0.19466653  0.32520515  0.69441230  1.0
  Ti  Ti5630  1  0.19466653  0.49187182  0.69441230  1.0
  Ti  Ti5631  1  0.19466653  0.65853848  0.69441230  1.0
  Ti  Ti5632  1  0.19466653  0.82520515  0.69441230  1.0
  Ti  Ti5633  1  0.19466653  0.99187182  0.69441230  1.0
  Ti  Ti5634  1  0.27799986  0.15853848  0.69441230  1.0
  Ti  Ti5635  1  0.27799986  0.32520515  0.69441230  1.0
  Ti  Ti5636  1  0.27799986  0.49187182  0.69441230  1.0
  Ti  Ti5637  1  0.27799986  0.65853848  0.69441230  1.0
  Ti  Ti5638  1  0.27799986  0.82520515  0.69441230  1.0
  Ti  Ti5639  1  0.27799986  0.99187182  0.69441230  1.0
  Ti  Ti5640  1  0.36133319  0.15853848  0.69441230  1.0
  Ti  Ti5641  1  0.36133319  0.32520515  0.69441230  1.0
  Ti  Ti5642  1  0.36133319  0.49187182  0.69441230  1.0
  Ti  Ti5643  1  0.36133319  0.65853848  0.69441230  1.0
  Ti  Ti5644  1  0.36133319  0.82520515  0.69441230  1.0
  Ti  Ti5645  1  0.36133319  0.99187182  0.69441230  1.0
  Ti  Ti5646  1  0.44466653  0.15853848  0.69441230  1.0
  Ti  Ti5647  1  0.44466653  0.32520515  0.69441230  1.0
  Ti  Ti5648  1  0.44466653  0.49187182  0.69441230  1.0
  Ti  Ti5649  1  0.44466653  0.65853848  0.69441230  1.0
  Ti  Ti5650  1  0.44466653  0.82520515  0.69441230  1.0
  Ti  Ti5651  1  0.44466653  0.99187182  0.69441230  1.0
  Ti  Ti5652  1  0.52799986  0.15853848  0.69441230  1.0
  Ti  Ti5653  1  0.52799986  0.32520515  0.69441230  1.0
  Ti  Ti5654  1  0.52799986  0.49187182  0.69441230  1.0
  Ti  Ti5655  1  0.52799986  0.65853848  0.69441230  1.0
  Ti  Ti5656  1  0.52799986  0.82520515  0.69441230  1.0
  Ti  Ti5657  1  0.52799986  0.99187182  0.69441230  1.0
  Ti  Ti5658  1  0.61133319  0.15853848  0.69441230  1.0
  Ti  Ti5659  1  0.61133319  0.32520515  0.69441230  1.0
  Ti  Ti5660  1  0.61133319  0.49187182  0.69441230  1.0
  Ti  Ti5661  1  0.61133319  0.65853848  0.69441230  1.0
  Ti  Ti5662  1  0.61133319  0.82520515  0.69441230  1.0
  Ti  Ti5663  1  0.61133319  0.99187182  0.69441230  1.0
  Ti  Ti5664  1  0.69466653  0.15853848  0.69441230  1.0
  Ti  Ti5665  1  0.69466653  0.32520515  0.69441230  1.0
  Ti  Ti5666  1  0.69466653  0.49187182  0.69441230  1.0
  Ti  Ti5667  1  0.69466653  0.65853848  0.69441230  1.0
  Ti  Ti5668  1  0.69466653  0.82520515  0.69441230  1.0
  Ti  Ti5669  1  0.69466653  0.99187182  0.69441230  1.0
  Ti  Ti5670  1  0.77799986  0.15853848  0.69441230  1.0
  Ti  Ti5671  1  0.77799986  0.32520515  0.69441230  1.0
  Ti  Ti5672  1  0.77799986  0.49187182  0.69441230  1.0
  Ti  Ti5673  1  0.77799986  0.65853848  0.69441230  1.0
  Ti  Ti5674  1  0.77799986  0.82520515  0.69441230  1.0
  Ti  Ti5675  1  0.77799986  0.99187182  0.69441230  1.0
  Ti  Ti5676  1  0.86133319  0.15853848  0.69441230  1.0
  Ti  Ti5677  1  0.86133319  0.32520515  0.69441230  1.0
  Ti  Ti5678  1  0.86133319  0.49187182  0.69441230  1.0
  Ti  Ti5679  1  0.86133319  0.65853848  0.69441230  1.0
  Ti  Ti5680  1  0.86133319  0.82520515  0.69441230  1.0
  Ti  Ti5681  1  0.86133319  0.99187182  0.69441230  1.0
  Ti  Ti5682  1  0.94466653  0.15853848  0.69441230  1.0
  Ti  Ti5683  1  0.94466653  0.32520515  0.69441230  1.0
  Ti  Ti5684  1  0.94466653  0.49187182  0.69441230  1.0
  Ti  Ti5685  1  0.94466653  0.65853848  0.69441230  1.0
  Ti  Ti5686  1  0.94466653  0.82520515  0.69441230  1.0
  Ti  Ti5687  1  0.94466653  0.99187182  0.69441230  1.0
  Ti  Ti5688  1  0.03174619  0.11116576  0.68705772  1.0
  Ti  Ti5689  1  0.03174619  0.27783243  0.68705772  1.0
  Ti  Ti5690  1  0.03174619  0.44449910  0.68705772  1.0
  Ti  Ti5691  1  0.03174619  0.61116576  0.68705772  1.0
  Ti  Ti5692  1  0.03174619  0.77783243  0.68705772  1.0
  Ti  Ti5693  1  0.03174619  0.94449910  0.68705772  1.0
  Ti  Ti5694  1  0.11507952  0.11116576  0.68705772  1.0
  Ti  Ti5695  1  0.11507952  0.27783243  0.68705772  1.0
  Ti  Ti5696  1  0.11507952  0.44449910  0.68705772  1.0
  Ti  Ti5697  1  0.11507952  0.61116576  0.68705772  1.0
  Ti  Ti5698  1  0.11507952  0.77783243  0.68705772  1.0
  Ti  Ti5699  1  0.11507952  0.94449910  0.68705772  1.0
  Ti  Ti5700  1  0.19841286  0.11116576  0.68705772  1.0
  Ti  Ti5701  1  0.19841286  0.27783243  0.68705772  1.0
  Ti  Ti5702  1  0.19841286  0.44449910  0.68705772  1.0
  Ti  Ti5703  1  0.19841286  0.61116576  0.68705772  1.0
  Ti  Ti5704  1  0.19841286  0.77783243  0.68705772  1.0
  Ti  Ti5705  1  0.19841286  0.94449910  0.68705772  1.0
  Ti  Ti5706  1  0.28174619  0.11116576  0.68705772  1.0
  Ti  Ti5707  1  0.28174619  0.27783243  0.68705772  1.0
  Ti  Ti5708  1  0.28174619  0.44449910  0.68705772  1.0
  Ti  Ti5709  1  0.28174619  0.61116576  0.68705772  1.0
  Ti  Ti5710  1  0.28174619  0.77783243  0.68705772  1.0
  Ti  Ti5711  1  0.28174619  0.94449910  0.68705772  1.0
  Ti  Ti5712  1  0.36507952  0.11116576  0.68705772  1.0
  Ti  Ti5713  1  0.36507952  0.27783243  0.68705772  1.0
  Ti  Ti5714  1  0.36507952  0.44449910  0.68705772  1.0
  Ti  Ti5715  1  0.36507952  0.61116576  0.68705772  1.0
  Ti  Ti5716  1  0.36507952  0.77783243  0.68705772  1.0
  Ti  Ti5717  1  0.36507952  0.94449910  0.68705772  1.0
  Ti  Ti5718  1  0.44841286  0.11116576  0.68705772  1.0
  Ti  Ti5719  1  0.44841286  0.27783243  0.68705772  1.0
  Ti  Ti5720  1  0.44841286  0.44449910  0.68705772  1.0
  Ti  Ti5721  1  0.44841286  0.61116576  0.68705772  1.0
  Ti  Ti5722  1  0.44841286  0.77783243  0.68705772  1.0
  Ti  Ti5723  1  0.44841286  0.94449910  0.68705772  1.0
  Ti  Ti5724  1  0.53174619  0.11116576  0.68705772  1.0
  Ti  Ti5725  1  0.53174619  0.27783243  0.68705772  1.0
  Ti  Ti5726  1  0.53174619  0.44449910  0.68705772  1.0
  Ti  Ti5727  1  0.53174619  0.61116576  0.68705772  1.0
  Ti  Ti5728  1  0.53174619  0.77783243  0.68705772  1.0
  Ti  Ti5729  1  0.53174619  0.94449910  0.68705772  1.0
  Ti  Ti5730  1  0.61507952  0.11116576  0.68705772  1.0
  Ti  Ti5731  1  0.61507952  0.27783243  0.68705772  1.0
  Ti  Ti5732  1  0.61507952  0.44449910  0.68705772  1.0
  Ti  Ti5733  1  0.61507952  0.61116576  0.68705772  1.0
  Ti  Ti5734  1  0.61507952  0.77783243  0.68705772  1.0
  Ti  Ti5735  1  0.61507952  0.94449910  0.68705772  1.0
  Ti  Ti5736  1  0.69841286  0.11116576  0.68705772  1.0
  Ti  Ti5737  1  0.69841286  0.27783243  0.68705772  1.0
  Ti  Ti5738  1  0.69841286  0.44449910  0.68705772  1.0
  Ti  Ti5739  1  0.69841286  0.61116576  0.68705772  1.0
  Ti  Ti5740  1  0.69841286  0.77783243  0.68705772  1.0
  Ti  Ti5741  1  0.69841286  0.94449910  0.68705772  1.0
  Ti  Ti5742  1  0.78174619  0.11116576  0.68705772  1.0
  Ti  Ti5743  1  0.78174619  0.27783243  0.68705772  1.0
  Ti  Ti5744  1  0.78174619  0.44449910  0.68705772  1.0
  Ti  Ti5745  1  0.78174619  0.61116576  0.68705772  1.0
  Ti  Ti5746  1  0.78174619  0.77783243  0.68705772  1.0
  Ti  Ti5747  1  0.78174619  0.94449910  0.68705772  1.0
  Ti  Ti5748  1  0.86507952  0.11116576  0.68705772  1.0
  Ti  Ti5749  1  0.86507952  0.27783243  0.68705772  1.0
  Ti  Ti5750  1  0.86507952  0.44449910  0.68705772  1.0
  Ti  Ti5751  1  0.86507952  0.61116576  0.68705772  1.0
  Ti  Ti5752  1  0.86507952  0.77783243  0.68705772  1.0
  Ti  Ti5753  1  0.86507952  0.94449910  0.68705772  1.0
  Ti  Ti5754  1  0.94841286  0.11116576  0.68705772  1.0
  Ti  Ti5755  1  0.94841286  0.27783243  0.68705772  1.0
  Ti  Ti5756  1  0.94841286  0.44449910  0.68705772  1.0
  Ti  Ti5757  1  0.94841286  0.61116576  0.68705772  1.0
  Ti  Ti5758  1  0.94841286  0.77783243  0.68705772  1.0
  Ti  Ti5759  1  0.94841286  0.94449910  0.68705772  1.0
  Ti  Ti5760  1  0.02478586  0.03579145  0.70433131  1.0
  Ti  Ti5761  1  0.02478586  0.20245811  0.70433131  1.0
  Ti  Ti5762  1  0.02478586  0.36912478  0.70433131  1.0
  Ti  Ti5763  1  0.02478586  0.53579145  0.70433131  1.0
  Ti  Ti5764  1  0.02478586  0.70245811  0.70433131  1.0
  Ti  Ti5765  1  0.02478586  0.86912478  0.70433131  1.0
  Ti  Ti5766  1  0.10811920  0.03579145  0.70433131  1.0
  Ti  Ti5767  1  0.10811920  0.20245811  0.70433131  1.0
  Ti  Ti5768  1  0.10811920  0.36912478  0.70433131  1.0
  Ti  Ti5769  1  0.10811920  0.53579145  0.70433131  1.0
  Ti  Ti5770  1  0.10811920  0.70245811  0.70433131  1.0
  Ti  Ti5771  1  0.10811920  0.86912478  0.70433131  1.0
  Ti  Ti5772  1  0.19145253  0.03579145  0.70433131  1.0
  Ti  Ti5773  1  0.19145253  0.20245811  0.70433131  1.0
  Ti  Ti5774  1  0.19145253  0.36912478  0.70433131  1.0
  Ti  Ti5775  1  0.19145253  0.53579145  0.70433131  1.0
  Ti  Ti5776  1  0.19145253  0.70245811  0.70433131  1.0
  Ti  Ti5777  1  0.19145253  0.86912478  0.70433131  1.0
  Ti  Ti5778  1  0.27478586  0.03579145  0.70433131  1.0
  Ti  Ti5779  1  0.27478586  0.20245811  0.70433131  1.0
  Ti  Ti5780  1  0.27478586  0.36912478  0.70433131  1.0
  Ti  Ti5781  1  0.27478586  0.53579145  0.70433131  1.0
  Ti  Ti5782  1  0.27478586  0.70245811  0.70433131  1.0
  Ti  Ti5783  1  0.27478586  0.86912478  0.70433131  1.0
  Ti  Ti5784  1  0.35811920  0.03579145  0.70433131  1.0
  Ti  Ti5785  1  0.35811920  0.20245811  0.70433131  1.0
  Ti  Ti5786  1  0.35811920  0.36912478  0.70433131  1.0
  Ti  Ti5787  1  0.35811920  0.53579145  0.70433131  1.0
  Ti  Ti5788  1  0.35811920  0.70245811  0.70433131  1.0
  Ti  Ti5789  1  0.35811920  0.86912478  0.70433131  1.0
  Ti  Ti5790  1  0.44145253  0.03579145  0.70433131  1.0
  Ti  Ti5791  1  0.44145253  0.20245811  0.70433131  1.0
  Ti  Ti5792  1  0.44145253  0.36912478  0.70433131  1.0
  Ti  Ti5793  1  0.44145253  0.53579145  0.70433131  1.0
  Ti  Ti5794  1  0.44145253  0.70245811  0.70433131  1.0
  Ti  Ti5795  1  0.44145253  0.86912478  0.70433131  1.0
  Ti  Ti5796  1  0.52478586  0.03579145  0.70433131  1.0
  Ti  Ti5797  1  0.52478586  0.20245811  0.70433131  1.0
  Ti  Ti5798  1  0.52478586  0.36912478  0.70433131  1.0
  Ti  Ti5799  1  0.52478586  0.53579145  0.70433131  1.0
  Ti  Ti5800  1  0.52478586  0.70245811  0.70433131  1.0
  Ti  Ti5801  1  0.52478586  0.86912478  0.70433131  1.0
  Ti  Ti5802  1  0.60811920  0.03579145  0.70433131  1.0
  Ti  Ti5803  1  0.60811920  0.20245811  0.70433131  1.0
  Ti  Ti5804  1  0.60811920  0.36912478  0.70433131  1.0
  Ti  Ti5805  1  0.60811920  0.53579145  0.70433131  1.0
  Ti  Ti5806  1  0.60811920  0.70245811  0.70433131  1.0
  Ti  Ti5807  1  0.60811920  0.86912478  0.70433131  1.0
  Ti  Ti5808  1  0.69145253  0.03579145  0.70433131  1.0
  Ti  Ti5809  1  0.69145253  0.20245811  0.70433131  1.0
  Ti  Ti5810  1  0.69145253  0.36912478  0.70433131  1.0
  Ti  Ti5811  1  0.69145253  0.53579145  0.70433131  1.0
  Ti  Ti5812  1  0.69145253  0.70245811  0.70433131  1.0
  Ti  Ti5813  1  0.69145253  0.86912478  0.70433131  1.0
  Ti  Ti5814  1  0.77478586  0.03579145  0.70433131  1.0
  Ti  Ti5815  1  0.77478586  0.20245811  0.70433131  1.0
  Ti  Ti5816  1  0.77478586  0.36912478  0.70433131  1.0
  Ti  Ti5817  1  0.77478586  0.53579145  0.70433131  1.0
  Ti  Ti5818  1  0.77478586  0.70245811  0.70433131  1.0
  Ti  Ti5819  1  0.77478586  0.86912478  0.70433131  1.0
  Ti  Ti5820  1  0.85811920  0.03579145  0.70433131  1.0
  Ti  Ti5821  1  0.85811920  0.20245811  0.70433131  1.0
  Ti  Ti5822  1  0.85811920  0.36912478  0.70433131  1.0
  Ti  Ti5823  1  0.85811920  0.53579145  0.70433131  1.0
  Ti  Ti5824  1  0.85811920  0.70245811  0.70433131  1.0
  Ti  Ti5825  1  0.85811920  0.86912478  0.70433131  1.0
  Ti  Ti5826  1  0.94145253  0.03579145  0.70433131  1.0
  Ti  Ti5827  1  0.94145253  0.20245811  0.70433131  1.0
  Ti  Ti5828  1  0.94145253  0.36912478  0.70433131  1.0
  Ti  Ti5829  1  0.94145253  0.53579145  0.70433131  1.0
  Ti  Ti5830  1  0.94145253  0.70245811  0.70433131  1.0
  Ti  Ti5831  1  0.94145253  0.86912478  0.70433131  1.0
  O  O5832  1  0.07451030  0.04207097  0.24425674  1.0
  O  O5833  1  0.07451030  0.20873763  0.24425674  1.0
  O  O5834  1  0.07451030  0.37540430  0.24425674  1.0
  O  O5835  1  0.07451030  0.54207097  0.24425674  1.0
  O  O5836  1  0.07451030  0.70873763  0.24425674  1.0
  O  O5837  1  0.07451030  0.87540430  0.24425674  1.0
  O  O5838  1  0.15784364  0.04207097  0.24425674  1.0
  O  O5839  1  0.15784364  0.20873763  0.24425674  1.0
  O  O5840  1  0.15784364  0.37540430  0.24425674  1.0
  O  O5841  1  0.15784364  0.54207097  0.24425674  1.0
  O  O5842  1  0.15784364  0.70873763  0.24425674  1.0
  O  O5843  1  0.15784364  0.87540430  0.24425674  1.0
  O  O5844  1  0.24117697  0.04207097  0.24425674  1.0
  O  O5845  1  0.24117697  0.20873763  0.24425674  1.0
  O  O5846  1  0.24117697  0.37540430  0.24425674  1.0
  O  O5847  1  0.24117697  0.54207097  0.24425674  1.0
  O  O5848  1  0.24117697  0.70873763  0.24425674  1.0
  O  O5849  1  0.24117697  0.87540430  0.24425674  1.0
  O  O5850  1  0.32451030  0.04207097  0.24425674  1.0
  O  O5851  1  0.32451030  0.20873763  0.24425674  1.0
  O  O5852  1  0.32451030  0.37540430  0.24425674  1.0
  O  O5853  1  0.32451030  0.54207097  0.24425674  1.0
  O  O5854  1  0.32451030  0.70873763  0.24425674  1.0
  O  O5855  1  0.32451030  0.87540430  0.24425674  1.0
  O  O5856  1  0.40784364  0.04207097  0.24425674  1.0
  O  O5857  1  0.40784364  0.20873763  0.24425674  1.0
  O  O5858  1  0.40784364  0.37540430  0.24425674  1.0
  O  O5859  1  0.40784364  0.54207097  0.24425674  1.0
  O  O5860  1  0.40784364  0.70873763  0.24425674  1.0
  O  O5861  1  0.40784364  0.87540430  0.24425674  1.0
  O  O5862  1  0.49117697  0.04207097  0.24425674  1.0
  O  O5863  1  0.49117697  0.20873763  0.24425674  1.0
  O  O5864  1  0.49117697  0.37540430  0.24425674  1.0
  O  O5865  1  0.49117697  0.54207097  0.24425674  1.0
  O  O5866  1  0.49117697  0.70873763  0.24425674  1.0
  O  O5867  1  0.49117697  0.87540430  0.24425674  1.0
  O  O5868  1  0.57451030  0.04207097  0.24425674  1.0
  O  O5869  1  0.57451030  0.20873763  0.24425674  1.0
  O  O5870  1  0.57451030  0.37540430  0.24425674  1.0
  O  O5871  1  0.57451030  0.54207097  0.24425674  1.0
  O  O5872  1  0.57451030  0.70873763  0.24425674  1.0
  O  O5873  1  0.57451030  0.87540430  0.24425674  1.0
  O  O5874  1  0.65784364  0.04207097  0.24425674  1.0
  O  O5875  1  0.65784364  0.20873763  0.24425674  1.0
  O  O5876  1  0.65784364  0.37540430  0.24425674  1.0
  O  O5877  1  0.65784364  0.54207097  0.24425674  1.0
  O  O5878  1  0.65784364  0.70873763  0.24425674  1.0
  O  O5879  1  0.65784364  0.87540430  0.24425674  1.0
  O  O5880  1  0.74117697  0.04207097  0.24425674  1.0
  O  O5881  1  0.74117697  0.20873763  0.24425674  1.0
  O  O5882  1  0.74117697  0.37540430  0.24425674  1.0
  O  O5883  1  0.74117697  0.54207097  0.24425674  1.0
  O  O5884  1  0.74117697  0.70873763  0.24425674  1.0
  O  O5885  1  0.74117697  0.87540430  0.24425674  1.0
  O  O5886  1  0.82451030  0.04207097  0.24425674  1.0
  O  O5887  1  0.82451030  0.20873763  0.24425674  1.0
  O  O5888  1  0.82451030  0.37540430  0.24425674  1.0
  O  O5889  1  0.82451030  0.54207097  0.24425674  1.0
  O  O5890  1  0.82451030  0.70873763  0.24425674  1.0
  O  O5891  1  0.82451030  0.87540430  0.24425674  1.0
  O  O5892  1  0.90784364  0.04207097  0.24425674  1.0
  O  O5893  1  0.90784364  0.20873763  0.24425674  1.0
  O  O5894  1  0.90784364  0.37540430  0.24425674  1.0
  O  O5895  1  0.90784364  0.54207097  0.24425674  1.0
  O  O5896  1  0.90784364  0.70873763  0.24425674  1.0
  O  O5897  1  0.90784364  0.87540430  0.24425674  1.0
  O  O5898  1  0.99117697  0.04207097  0.24425674  1.0
  O  O5899  1  0.99117697  0.20873763  0.24425674  1.0
  O  O5900  1  0.99117697  0.37540430  0.24425674  1.0
  O  O5901  1  0.99117697  0.54207097  0.24425674  1.0
  O  O5902  1  0.99117697  0.70873763  0.24425674  1.0
  O  O5903  1  0.99117697  0.87540430  0.24425674  1.0
  O  O5904  1  0.05070078  0.03016621  0.31568532  1.0
  O  O5905  1  0.05070078  0.19683287  0.31568532  1.0
  O  O5906  1  0.05070078  0.36349954  0.31568532  1.0
  O  O5907  1  0.05070078  0.53016621  0.31568532  1.0
  O  O5908  1  0.05070078  0.69683287  0.31568532  1.0
  O  O5909  1  0.05070078  0.86349954  0.31568532  1.0
  O  O5910  1  0.13403411  0.03016621  0.31568532  1.0
  O  O5911  1  0.13403411  0.19683287  0.31568532  1.0
  O  O5912  1  0.13403411  0.36349954  0.31568532  1.0
  O  O5913  1  0.13403411  0.53016621  0.31568532  1.0
  O  O5914  1  0.13403411  0.69683287  0.31568532  1.0
  O  O5915  1  0.13403411  0.86349954  0.31568532  1.0
  O  O5916  1  0.21736745  0.03016621  0.31568532  1.0
  O  O5917  1  0.21736745  0.19683287  0.31568532  1.0
  O  O5918  1  0.21736745  0.36349954  0.31568532  1.0
  O  O5919  1  0.21736745  0.53016621  0.31568532  1.0
  O  O5920  1  0.21736745  0.69683287  0.31568532  1.0
  O  O5921  1  0.21736745  0.86349954  0.31568532  1.0
  O  O5922  1  0.30070078  0.03016621  0.31568532  1.0
  O  O5923  1  0.30070078  0.19683287  0.31568532  1.0
  O  O5924  1  0.30070078  0.36349954  0.31568532  1.0
  O  O5925  1  0.30070078  0.53016621  0.31568532  1.0
  O  O5926  1  0.30070078  0.69683287  0.31568532  1.0
  O  O5927  1  0.30070078  0.86349954  0.31568532  1.0
  O  O5928  1  0.38403411  0.03016621  0.31568532  1.0
  O  O5929  1  0.38403411  0.19683287  0.31568532  1.0
  O  O5930  1  0.38403411  0.36349954  0.31568532  1.0
  O  O5931  1  0.38403411  0.53016621  0.31568532  1.0
  O  O5932  1  0.38403411  0.69683287  0.31568532  1.0
  O  O5933  1  0.38403411  0.86349954  0.31568532  1.0
  O  O5934  1  0.46736745  0.03016621  0.31568532  1.0
  O  O5935  1  0.46736745  0.19683287  0.31568532  1.0
  O  O5936  1  0.46736745  0.36349954  0.31568532  1.0
  O  O5937  1  0.46736745  0.53016621  0.31568532  1.0
  O  O5938  1  0.46736745  0.69683287  0.31568532  1.0
  O  O5939  1  0.46736745  0.86349954  0.31568532  1.0
  O  O5940  1  0.55070078  0.03016621  0.31568532  1.0
  O  O5941  1  0.55070078  0.19683287  0.31568532  1.0
  O  O5942  1  0.55070078  0.36349954  0.31568532  1.0
  O  O5943  1  0.55070078  0.53016621  0.31568532  1.0
  O  O5944  1  0.55070078  0.69683287  0.31568532  1.0
  O  O5945  1  0.55070078  0.86349954  0.31568532  1.0
  O  O5946  1  0.63403411  0.03016621  0.31568532  1.0
  O  O5947  1  0.63403411  0.19683287  0.31568532  1.0
  O  O5948  1  0.63403411  0.36349954  0.31568532  1.0
  O  O5949  1  0.63403411  0.53016621  0.31568532  1.0
  O  O5950  1  0.63403411  0.69683287  0.31568532  1.0
  O  O5951  1  0.63403411  0.86349954  0.31568532  1.0
  O  O5952  1  0.71736745  0.03016621  0.31568532  1.0
  O  O5953  1  0.71736745  0.19683287  0.31568532  1.0
  O  O5954  1  0.71736745  0.36349954  0.31568532  1.0
  O  O5955  1  0.71736745  0.53016621  0.31568532  1.0
  O  O5956  1  0.71736745  0.69683287  0.31568532  1.0
  O  O5957  1  0.71736745  0.86349954  0.31568532  1.0
  O  O5958  1  0.80070078  0.03016621  0.31568532  1.0
  O  O5959  1  0.80070078  0.19683287  0.31568532  1.0
  O  O5960  1  0.80070078  0.36349954  0.31568532  1.0
  O  O5961  1  0.80070078  0.53016621  0.31568532  1.0
  O  O5962  1  0.80070078  0.69683287  0.31568532  1.0
  O  O5963  1  0.80070078  0.86349954  0.31568532  1.0
  O  O5964  1  0.88403411  0.03016621  0.31568532  1.0
  O  O5965  1  0.88403411  0.19683287  0.31568532  1.0
  O  O5966  1  0.88403411  0.36349954  0.31568532  1.0
  O  O5967  1  0.88403411  0.53016621  0.31568532  1.0
  O  O5968  1  0.88403411  0.69683287  0.31568532  1.0
  O  O5969  1  0.88403411  0.86349954  0.31568532  1.0
  O  O5970  1  0.96736745  0.03016621  0.31568532  1.0
  O  O5971  1  0.96736745  0.19683287  0.31568532  1.0
  O  O5972  1  0.96736745  0.36349954  0.31568532  1.0
  O  O5973  1  0.96736745  0.53016621  0.31568532  1.0
  O  O5974  1  0.96736745  0.69683287  0.31568532  1.0
  O  O5975  1  0.96736745  0.86349954  0.31568532  1.0
  O  O5976  1  0.07880953  0.16391533  0.23351008  1.0
  O  O5977  1  0.07880953  0.33058199  0.23351008  1.0
  O  O5978  1  0.07880953  0.49724866  0.23351008  1.0
  O  O5979  1  0.07880953  0.66391533  0.23351008  1.0
  O  O5980  1  0.07880953  0.83058199  0.23351008  1.0
  O  O5981  1  0.07880953  0.99724866  0.23351008  1.0
  O  O5982  1  0.16214286  0.16391533  0.23351008  1.0
  O  O5983  1  0.16214286  0.33058199  0.23351008  1.0
  O  O5984  1  0.16214286  0.49724866  0.23351008  1.0
  O  O5985  1  0.16214286  0.66391533  0.23351008  1.0
  O  O5986  1  0.16214286  0.83058199  0.23351008  1.0
  O  O5987  1  0.16214286  0.99724866  0.23351008  1.0
  O  O5988  1  0.24547620  0.16391533  0.23351008  1.0
  O  O5989  1  0.24547620  0.33058199  0.23351008  1.0
  O  O5990  1  0.24547620  0.49724866  0.23351008  1.0
  O  O5991  1  0.24547620  0.66391533  0.23351008  1.0
  O  O5992  1  0.24547620  0.83058199  0.23351008  1.0
  O  O5993  1  0.24547620  0.99724866  0.23351008  1.0
  O  O5994  1  0.32880953  0.16391533  0.23351008  1.0
  O  O5995  1  0.32880953  0.33058199  0.23351008  1.0
  O  O5996  1  0.32880953  0.49724866  0.23351008  1.0
  O  O5997  1  0.32880953  0.66391533  0.23351008  1.0
  O  O5998  1  0.32880953  0.83058199  0.23351008  1.0
  O  O5999  1  0.32880953  0.99724866  0.23351008  1.0
  O  O6000  1  0.41214286  0.16391533  0.23351008  1.0
  O  O6001  1  0.41214286  0.33058199  0.23351008  1.0
  O  O6002  1  0.41214286  0.49724866  0.23351008  1.0
  O  O6003  1  0.41214286  0.66391533  0.23351008  1.0
  O  O6004  1  0.41214286  0.83058199  0.23351008  1.0
  O  O6005  1  0.41214286  0.99724866  0.23351008  1.0
  O  O6006  1  0.49547620  0.16391533  0.23351008  1.0
  O  O6007  1  0.49547620  0.33058199  0.23351008  1.0
  O  O6008  1  0.49547620  0.49724866  0.23351008  1.0
  O  O6009  1  0.49547620  0.66391533  0.23351008  1.0
  O  O6010  1  0.49547620  0.83058199  0.23351008  1.0
  O  O6011  1  0.49547620  0.99724866  0.23351008  1.0
  O  O6012  1  0.57880953  0.16391533  0.23351008  1.0
  O  O6013  1  0.57880953  0.33058199  0.23351008  1.0
  O  O6014  1  0.57880953  0.49724866  0.23351008  1.0
  O  O6015  1  0.57880953  0.66391533  0.23351008  1.0
  O  O6016  1  0.57880953  0.83058199  0.23351008  1.0
  O  O6017  1  0.57880953  0.99724866  0.23351008  1.0
  O  O6018  1  0.66214286  0.16391533  0.23351008  1.0
  O  O6019  1  0.66214286  0.33058199  0.23351008  1.0
  O  O6020  1  0.66214286  0.49724866  0.23351008  1.0
  O  O6021  1  0.66214286  0.66391533  0.23351008  1.0
  O  O6022  1  0.66214286  0.83058199  0.23351008  1.0
  O  O6023  1  0.66214286  0.99724866  0.23351008  1.0
  O  O6024  1  0.74547620  0.16391533  0.23351008  1.0
  O  O6025  1  0.74547620  0.33058199  0.23351008  1.0
  O  O6026  1  0.74547620  0.49724866  0.23351008  1.0
  O  O6027  1  0.74547620  0.66391533  0.23351008  1.0
  O  O6028  1  0.74547620  0.83058199  0.23351008  1.0
  O  O6029  1  0.74547620  0.99724866  0.23351008  1.0
  O  O6030  1  0.82880953  0.16391533  0.23351008  1.0
  O  O6031  1  0.82880953  0.33058199  0.23351008  1.0
  O  O6032  1  0.82880953  0.49724866  0.23351008  1.0
  O  O6033  1  0.82880953  0.66391533  0.23351008  1.0
  O  O6034  1  0.82880953  0.83058199  0.23351008  1.0
  O  O6035  1  0.82880953  0.99724866  0.23351008  1.0
  O  O6036  1  0.91214286  0.16391533  0.23351008  1.0
  O  O6037  1  0.91214286  0.33058199  0.23351008  1.0
  O  O6038  1  0.91214286  0.49724866  0.23351008  1.0
  O  O6039  1  0.91214286  0.66391533  0.23351008  1.0
  O  O6040  1  0.91214286  0.83058199  0.23351008  1.0
  O  O6041  1  0.91214286  0.99724866  0.23351008  1.0
  O  O6042  1  0.99547620  0.16391533  0.23351008  1.0
  O  O6043  1  0.99547620  0.33058199  0.23351008  1.0
  O  O6044  1  0.99547620  0.49724866  0.23351008  1.0
  O  O6045  1  0.99547620  0.66391533  0.23351008  1.0
  O  O6046  1  0.99547620  0.83058199  0.23351008  1.0
  O  O6047  1  0.99547620  0.99724866  0.23351008  1.0
  O  O6048  1  0.05500001  0.15201056  0.30493865  1.0
  O  O6049  1  0.05500001  0.31867723  0.30493865  1.0
  O  O6050  1  0.05500001  0.48534390  0.30493865  1.0
  O  O6051  1  0.05500001  0.65201056  0.30493865  1.0
  O  O6052  1  0.05500001  0.81867723  0.30493865  1.0
  O  O6053  1  0.05500001  0.98534390  0.30493865  1.0
  O  O6054  1  0.13833334  0.15201056  0.30493865  1.0
  O  O6055  1  0.13833334  0.31867723  0.30493865  1.0
  O  O6056  1  0.13833334  0.48534390  0.30493865  1.0
  O  O6057  1  0.13833334  0.65201056  0.30493865  1.0
  O  O6058  1  0.13833334  0.81867723  0.30493865  1.0
  O  O6059  1  0.13833334  0.98534390  0.30493865  1.0
  O  O6060  1  0.22166667  0.15201056  0.30493865  1.0
  O  O6061  1  0.22166667  0.31867723  0.30493865  1.0
  O  O6062  1  0.22166667  0.48534390  0.30493865  1.0
  O  O6063  1  0.22166667  0.65201056  0.30493865  1.0
  O  O6064  1  0.22166667  0.81867723  0.30493865  1.0
  O  O6065  1  0.22166667  0.98534390  0.30493865  1.0
  O  O6066  1  0.30500001  0.15201056  0.30493865  1.0
  O  O6067  1  0.30500001  0.31867723  0.30493865  1.0
  O  O6068  1  0.30500001  0.48534390  0.30493865  1.0
  O  O6069  1  0.30500001  0.65201056  0.30493865  1.0
  O  O6070  1  0.30500001  0.81867723  0.30493865  1.0
  O  O6071  1  0.30500001  0.98534390  0.30493865  1.0
  O  O6072  1  0.38833334  0.15201056  0.30493865  1.0
  O  O6073  1  0.38833334  0.31867723  0.30493865  1.0
  O  O6074  1  0.38833334  0.48534390  0.30493865  1.0
  O  O6075  1  0.38833334  0.65201056  0.30493865  1.0
  O  O6076  1  0.38833334  0.81867723  0.30493865  1.0
  O  O6077  1  0.38833334  0.98534390  0.30493865  1.0
  O  O6078  1  0.47166667  0.15201056  0.30493865  1.0
  O  O6079  1  0.47166667  0.31867723  0.30493865  1.0
  O  O6080  1  0.47166667  0.48534390  0.30493865  1.0
  O  O6081  1  0.47166667  0.65201056  0.30493865  1.0
  O  O6082  1  0.47166667  0.81867723  0.30493865  1.0
  O  O6083  1  0.47166667  0.98534390  0.30493865  1.0
  O  O6084  1  0.55500001  0.15201056  0.30493865  1.0
  O  O6085  1  0.55500001  0.31867723  0.30493865  1.0
  O  O6086  1  0.55500001  0.48534390  0.30493865  1.0
  O  O6087  1  0.55500001  0.65201056  0.30493865  1.0
  O  O6088  1  0.55500001  0.81867723  0.30493865  1.0
  O  O6089  1  0.55500001  0.98534390  0.30493865  1.0
  O  O6090  1  0.63833334  0.15201056  0.30493865  1.0
  O  O6091  1  0.63833334  0.31867723  0.30493865  1.0
  O  O6092  1  0.63833334  0.48534390  0.30493865  1.0
  O  O6093  1  0.63833334  0.65201056  0.30493865  1.0
  O  O6094  1  0.63833334  0.81867723  0.30493865  1.0
  O  O6095  1  0.63833334  0.98534390  0.30493865  1.0
  O  O6096  1  0.72166667  0.15201056  0.30493865  1.0
  O  O6097  1  0.72166667  0.31867723  0.30493865  1.0
  O  O6098  1  0.72166667  0.48534390  0.30493865  1.0
  O  O6099  1  0.72166667  0.65201056  0.30493865  1.0
  O  O6100  1  0.72166667  0.81867723  0.30493865  1.0
  O  O6101  1  0.72166667  0.98534390  0.30493865  1.0
  O  O6102  1  0.80500001  0.15201056  0.30493865  1.0
  O  O6103  1  0.80500001  0.31867723  0.30493865  1.0
  O  O6104  1  0.80500001  0.48534390  0.30493865  1.0
  O  O6105  1  0.80500001  0.65201056  0.30493865  1.0
  O  O6106  1  0.80500001  0.81867723  0.30493865  1.0
  O  O6107  1  0.80500001  0.98534390  0.30493865  1.0
  O  O6108  1  0.88833334  0.15201056  0.30493865  1.0
  O  O6109  1  0.88833334  0.31867723  0.30493865  1.0
  O  O6110  1  0.88833334  0.48534390  0.30493865  1.0
  O  O6111  1  0.88833334  0.65201056  0.30493865  1.0
  O  O6112  1  0.88833334  0.81867723  0.30493865  1.0
  O  O6113  1  0.88833334  0.98534390  0.30493865  1.0
  O  O6114  1  0.97166667  0.15201056  0.30493865  1.0
  O  O6115  1  0.97166667  0.31867723  0.30493865  1.0
  O  O6116  1  0.97166667  0.48534390  0.30493865  1.0
  O  O6117  1  0.97166667  0.65201056  0.30493865  1.0
  O  O6118  1  0.97166667  0.81867723  0.30493865  1.0
  O  O6119  1  0.97166667  0.98534390  0.30493865  1.0
  O  O6120  1  0.03168153  0.06469388  0.24921653  1.0
  O  O6121  1  0.03168153  0.23136054  0.24921653  1.0
  O  O6122  1  0.03168153  0.39802721  0.24921653  1.0
  O  O6123  1  0.03168153  0.56469388  0.24921653  1.0
  O  O6124  1  0.03168153  0.73136054  0.24921653  1.0
  O  O6125  1  0.03168153  0.89802721  0.24921653  1.0
  O  O6126  1  0.11501486  0.06469388  0.24921653  1.0
  O  O6127  1  0.11501486  0.23136054  0.24921653  1.0
  O  O6128  1  0.11501486  0.39802721  0.24921653  1.0
  O  O6129  1  0.11501486  0.56469388  0.24921653  1.0
  O  O6130  1  0.11501486  0.73136054  0.24921653  1.0
  O  O6131  1  0.11501486  0.89802721  0.24921653  1.0
  O  O6132  1  0.19834819  0.06469388  0.24921653  1.0
  O  O6133  1  0.19834819  0.23136054  0.24921653  1.0
  O  O6134  1  0.19834819  0.39802721  0.24921653  1.0
  O  O6135  1  0.19834819  0.56469388  0.24921653  1.0
  O  O6136  1  0.19834819  0.73136054  0.24921653  1.0
  O  O6137  1  0.19834819  0.89802721  0.24921653  1.0
  O  O6138  1  0.28168153  0.06469388  0.24921653  1.0
  O  O6139  1  0.28168153  0.23136054  0.24921653  1.0
  O  O6140  1  0.28168153  0.39802721  0.24921653  1.0
  O  O6141  1  0.28168153  0.56469388  0.24921653  1.0
  O  O6142  1  0.28168153  0.73136054  0.24921653  1.0
  O  O6143  1  0.28168153  0.89802721  0.24921653  1.0
  O  O6144  1  0.36501486  0.06469388  0.24921653  1.0
  O  O6145  1  0.36501486  0.23136054  0.24921653  1.0
  O  O6146  1  0.36501486  0.39802721  0.24921653  1.0
  O  O6147  1  0.36501486  0.56469388  0.24921653  1.0
  O  O6148  1  0.36501486  0.73136054  0.24921653  1.0
  O  O6149  1  0.36501486  0.89802721  0.24921653  1.0
  O  O6150  1  0.44834819  0.06469388  0.24921653  1.0
  O  O6151  1  0.44834819  0.23136054  0.24921653  1.0
  O  O6152  1  0.44834819  0.39802721  0.24921653  1.0
  O  O6153  1  0.44834819  0.56469388  0.24921653  1.0
  O  O6154  1  0.44834819  0.73136054  0.24921653  1.0
  O  O6155  1  0.44834819  0.89802721  0.24921653  1.0
  O  O6156  1  0.53168153  0.06469388  0.24921653  1.0
  O  O6157  1  0.53168153  0.23136054  0.24921653  1.0
  O  O6158  1  0.53168153  0.39802721  0.24921653  1.0
  O  O6159  1  0.53168153  0.56469388  0.24921653  1.0
  O  O6160  1  0.53168153  0.73136054  0.24921653  1.0
  O  O6161  1  0.53168153  0.89802721  0.24921653  1.0
  O  O6162  1  0.61501486  0.06469388  0.24921653  1.0
  O  O6163  1  0.61501486  0.23136054  0.24921653  1.0
  O  O6164  1  0.61501486  0.39802721  0.24921653  1.0
  O  O6165  1  0.61501486  0.56469388  0.24921653  1.0
  O  O6166  1  0.61501486  0.73136054  0.24921653  1.0
  O  O6167  1  0.61501486  0.89802721  0.24921653  1.0
  O  O6168  1  0.69834819  0.06469388  0.24921653  1.0
  O  O6169  1  0.69834819  0.23136054  0.24921653  1.0
  O  O6170  1  0.69834819  0.39802721  0.24921653  1.0
  O  O6171  1  0.69834819  0.56469388  0.24921653  1.0
  O  O6172  1  0.69834819  0.73136054  0.24921653  1.0
  O  O6173  1  0.69834819  0.89802721  0.24921653  1.0
  O  O6174  1  0.78168153  0.06469388  0.24921653  1.0
  O  O6175  1  0.78168153  0.23136054  0.24921653  1.0
  O  O6176  1  0.78168153  0.39802721  0.24921653  1.0
  O  O6177  1  0.78168153  0.56469388  0.24921653  1.0
  O  O6178  1  0.78168153  0.73136054  0.24921653  1.0
  O  O6179  1  0.78168153  0.89802721  0.24921653  1.0
  O  O6180  1  0.86501486  0.06469388  0.24921653  1.0
  O  O6181  1  0.86501486  0.23136054  0.24921653  1.0
  O  O6182  1  0.86501486  0.39802721  0.24921653  1.0
  O  O6183  1  0.86501486  0.56469388  0.24921653  1.0
  O  O6184  1  0.86501486  0.73136054  0.24921653  1.0
  O  O6185  1  0.86501486  0.89802721  0.24921653  1.0
  O  O6186  1  0.94834819  0.06469388  0.24921653  1.0
  O  O6187  1  0.94834819  0.23136054  0.24921653  1.0
  O  O6188  1  0.94834819  0.39802721  0.24921653  1.0
  O  O6189  1  0.94834819  0.56469388  0.24921653  1.0
  O  O6190  1  0.94834819  0.73136054  0.24921653  1.0
  O  O6191  1  0.94834819  0.89802721  0.24921653  1.0
  O  O6192  1  0.00787200  0.05278911  0.32064511  1.0
  O  O6193  1  0.00787200  0.21945578  0.32064511  1.0
  O  O6194  1  0.00787200  0.38612245  0.32064511  1.0
  O  O6195  1  0.00787200  0.55278911  0.32064511  1.0
  O  O6196  1  0.00787200  0.71945578  0.32064511  1.0
  O  O6197  1  0.00787200  0.88612245  0.32064511  1.0
  O  O6198  1  0.09120533  0.05278911  0.32064511  1.0
  O  O6199  1  0.09120533  0.21945578  0.32064511  1.0
  O  O6200  1  0.09120533  0.38612245  0.32064511  1.0
  O  O6201  1  0.09120533  0.55278911  0.32064511  1.0
  O  O6202  1  0.09120533  0.71945578  0.32064511  1.0
  O  O6203  1  0.09120533  0.88612245  0.32064511  1.0
  O  O6204  1  0.17453867  0.05278911  0.32064511  1.0
  O  O6205  1  0.17453867  0.21945578  0.32064511  1.0
  O  O6206  1  0.17453867  0.38612245  0.32064511  1.0
  O  O6207  1  0.17453867  0.55278911  0.32064511  1.0
  O  O6208  1  0.17453867  0.71945578  0.32064511  1.0
  O  O6209  1  0.17453867  0.88612245  0.32064511  1.0
  O  O6210  1  0.25787200  0.05278911  0.32064511  1.0
  O  O6211  1  0.25787200  0.21945578  0.32064511  1.0
  O  O6212  1  0.25787200  0.38612245  0.32064511  1.0
  O  O6213  1  0.25787200  0.55278911  0.32064511  1.0
  O  O6214  1  0.25787200  0.71945578  0.32064511  1.0
  O  O6215  1  0.25787200  0.88612245  0.32064511  1.0
  O  O6216  1  0.34120533  0.05278911  0.32064511  1.0
  O  O6217  1  0.34120533  0.21945578  0.32064511  1.0
  O  O6218  1  0.34120533  0.38612245  0.32064511  1.0
  O  O6219  1  0.34120533  0.55278911  0.32064511  1.0
  O  O6220  1  0.34120533  0.71945578  0.32064511  1.0
  O  O6221  1  0.34120533  0.88612245  0.32064511  1.0
  O  O6222  1  0.42453867  0.05278911  0.32064511  1.0
  O  O6223  1  0.42453867  0.21945578  0.32064511  1.0
  O  O6224  1  0.42453867  0.38612245  0.32064511  1.0
  O  O6225  1  0.42453867  0.55278911  0.32064511  1.0
  O  O6226  1  0.42453867  0.71945578  0.32064511  1.0
  O  O6227  1  0.42453867  0.88612245  0.32064511  1.0
  O  O6228  1  0.50787200  0.05278911  0.32064511  1.0
  O  O6229  1  0.50787200  0.21945578  0.32064511  1.0
  O  O6230  1  0.50787200  0.38612245  0.32064511  1.0
  O  O6231  1  0.50787200  0.55278911  0.32064511  1.0
  O  O6232  1  0.50787200  0.71945578  0.32064511  1.0
  O  O6233  1  0.50787200  0.88612245  0.32064511  1.0
  O  O6234  1  0.59120533  0.05278911  0.32064511  1.0
  O  O6235  1  0.59120533  0.21945578  0.32064511  1.0
  O  O6236  1  0.59120533  0.38612245  0.32064511  1.0
  O  O6237  1  0.59120533  0.55278911  0.32064511  1.0
  O  O6238  1  0.59120533  0.71945578  0.32064511  1.0
  O  O6239  1  0.59120533  0.88612245  0.32064511  1.0
  O  O6240  1  0.67453867  0.05278911  0.32064511  1.0
  O  O6241  1  0.67453867  0.21945578  0.32064511  1.0
  O  O6242  1  0.67453867  0.38612245  0.32064511  1.0
  O  O6243  1  0.67453867  0.55278911  0.32064511  1.0
  O  O6244  1  0.67453867  0.71945578  0.32064511  1.0
  O  O6245  1  0.67453867  0.88612245  0.32064511  1.0
  O  O6246  1  0.75787200  0.05278911  0.32064511  1.0
  O  O6247  1  0.75787200  0.21945578  0.32064511  1.0
  O  O6248  1  0.75787200  0.38612245  0.32064511  1.0
  O  O6249  1  0.75787200  0.55278911  0.32064511  1.0
  O  O6250  1  0.75787200  0.71945578  0.32064511  1.0
  O  O6251  1  0.75787200  0.88612245  0.32064511  1.0
  O  O6252  1  0.84120533  0.05278911  0.32064511  1.0
  O  O6253  1  0.84120533  0.21945578  0.32064511  1.0
  O  O6254  1  0.84120533  0.38612245  0.32064511  1.0
  O  O6255  1  0.84120533  0.55278911  0.32064511  1.0
  O  O6256  1  0.84120533  0.71945578  0.32064511  1.0
  O  O6257  1  0.84120533  0.88612245  0.32064511  1.0
  O  O6258  1  0.92453867  0.05278911  0.32064511  1.0
  O  O6259  1  0.92453867  0.21945578  0.32064511  1.0
  O  O6260  1  0.92453867  0.38612245  0.32064511  1.0
  O  O6261  1  0.92453867  0.55278911  0.32064511  1.0
  O  O6262  1  0.92453867  0.71945578  0.32064511  1.0
  O  O6263  1  0.92453867  0.88612245  0.32064511  1.0
  O  O6264  1  0.03451423  0.01973437  0.23982042  1.0
  O  O6265  1  0.03451423  0.18640104  0.23982042  1.0
  O  O6266  1  0.03451423  0.35306771  0.23982042  1.0
  O  O6267  1  0.03451423  0.51973437  0.23982042  1.0
  O  O6268  1  0.03451423  0.68640104  0.23982042  1.0
  O  O6269  1  0.03451423  0.85306771  0.23982042  1.0
  O  O6270  1  0.11784757  0.01973437  0.23982042  1.0
  O  O6271  1  0.11784757  0.18640104  0.23982042  1.0
  O  O6272  1  0.11784757  0.35306771  0.23982042  1.0
  O  O6273  1  0.11784757  0.51973437  0.23982042  1.0
  O  O6274  1  0.11784757  0.68640104  0.23982042  1.0
  O  O6275  1  0.11784757  0.85306771  0.23982042  1.0
  O  O6276  1  0.20118090  0.01973437  0.23982042  1.0
  O  O6277  1  0.20118090  0.18640104  0.23982042  1.0
  O  O6278  1  0.20118090  0.35306771  0.23982042  1.0
  O  O6279  1  0.20118090  0.51973437  0.23982042  1.0
  O  O6280  1  0.20118090  0.68640104  0.23982042  1.0
  O  O6281  1  0.20118090  0.85306771  0.23982042  1.0
  O  O6282  1  0.28451423  0.01973437  0.23982042  1.0
  O  O6283  1  0.28451423  0.18640104  0.23982042  1.0
  O  O6284  1  0.28451423  0.35306771  0.23982042  1.0
  O  O6285  1  0.28451423  0.51973437  0.23982042  1.0
  O  O6286  1  0.28451423  0.68640104  0.23982042  1.0
  O  O6287  1  0.28451423  0.85306771  0.23982042  1.0
  O  O6288  1  0.36784757  0.01973437  0.23982042  1.0
  O  O6289  1  0.36784757  0.18640104  0.23982042  1.0
  O  O6290  1  0.36784757  0.35306771  0.23982042  1.0
  O  O6291  1  0.36784757  0.51973437  0.23982042  1.0
  O  O6292  1  0.36784757  0.68640104  0.23982042  1.0
  O  O6293  1  0.36784757  0.85306771  0.23982042  1.0
  O  O6294  1  0.45118090  0.01973437  0.23982042  1.0
  O  O6295  1  0.45118090  0.18640104  0.23982042  1.0
  O  O6296  1  0.45118090  0.35306771  0.23982042  1.0
  O  O6297  1  0.45118090  0.51973437  0.23982042  1.0
  O  O6298  1  0.45118090  0.68640104  0.23982042  1.0
  O  O6299  1  0.45118090  0.85306771  0.23982042  1.0
  O  O6300  1  0.53451423  0.01973437  0.23982042  1.0
  O  O6301  1  0.53451423  0.18640104  0.23982042  1.0
  O  O6302  1  0.53451423  0.35306771  0.23982042  1.0
  O  O6303  1  0.53451423  0.51973437  0.23982042  1.0
  O  O6304  1  0.53451423  0.68640104  0.23982042  1.0
  O  O6305  1  0.53451423  0.85306771  0.23982042  1.0
  O  O6306  1  0.61784757  0.01973437  0.23982042  1.0
  O  O6307  1  0.61784757  0.18640104  0.23982042  1.0
  O  O6308  1  0.61784757  0.35306771  0.23982042  1.0
  O  O6309  1  0.61784757  0.51973437  0.23982042  1.0
  O  O6310  1  0.61784757  0.68640104  0.23982042  1.0
  O  O6311  1  0.61784757  0.85306771  0.23982042  1.0
  O  O6312  1  0.70118090  0.01973437  0.23982042  1.0
  O  O6313  1  0.70118090  0.18640104  0.23982042  1.0
  O  O6314  1  0.70118090  0.35306771  0.23982042  1.0
  O  O6315  1  0.70118090  0.51973437  0.23982042  1.0
  O  O6316  1  0.70118090  0.68640104  0.23982042  1.0
  O  O6317  1  0.70118090  0.85306771  0.23982042  1.0
  O  O6318  1  0.78451423  0.01973437  0.23982042  1.0
  O  O6319  1  0.78451423  0.18640104  0.23982042  1.0
  O  O6320  1  0.78451423  0.35306771  0.23982042  1.0
  O  O6321  1  0.78451423  0.51973437  0.23982042  1.0
  O  O6322  1  0.78451423  0.68640104  0.23982042  1.0
  O  O6323  1  0.78451423  0.85306771  0.23982042  1.0
  O  O6324  1  0.86784757  0.01973437  0.23982042  1.0
  O  O6325  1  0.86784757  0.18640104  0.23982042  1.0
  O  O6326  1  0.86784757  0.35306771  0.23982042  1.0
  O  O6327  1  0.86784757  0.51973437  0.23982042  1.0
  O  O6328  1  0.86784757  0.68640104  0.23982042  1.0
  O  O6329  1  0.86784757  0.85306771  0.23982042  1.0
  O  O6330  1  0.95118090  0.01973437  0.23982042  1.0
  O  O6331  1  0.95118090  0.18640104  0.23982042  1.0
  O  O6332  1  0.95118090  0.35306771  0.23982042  1.0
  O  O6333  1  0.95118090  0.51973437  0.23982042  1.0
  O  O6334  1  0.95118090  0.68640104  0.23982042  1.0
  O  O6335  1  0.95118090  0.85306771  0.23982042  1.0
  O  O6336  1  0.01070471  0.00782961  0.31124899  1.0
  O  O6337  1  0.01070471  0.17449628  0.31124899  1.0
  O  O6338  1  0.01070471  0.34116294  0.31124899  1.0
  O  O6339  1  0.01070471  0.50782961  0.31124899  1.0
  O  O6340  1  0.01070471  0.67449628  0.31124899  1.0
  O  O6341  1  0.01070471  0.84116294  0.31124899  1.0
  O  O6342  1  0.09403804  0.00782961  0.31124899  1.0
  O  O6343  1  0.09403804  0.17449628  0.31124899  1.0
  O  O6344  1  0.09403804  0.34116294  0.31124899  1.0
  O  O6345  1  0.09403804  0.50782961  0.31124899  1.0
  O  O6346  1  0.09403804  0.67449628  0.31124899  1.0
  O  O6347  1  0.09403804  0.84116294  0.31124899  1.0
  O  O6348  1  0.17737138  0.00782961  0.31124899  1.0
  O  O6349  1  0.17737138  0.17449628  0.31124899  1.0
  O  O6350  1  0.17737138  0.34116294  0.31124899  1.0
  O  O6351  1  0.17737138  0.50782961  0.31124899  1.0
  O  O6352  1  0.17737138  0.67449628  0.31124899  1.0
  O  O6353  1  0.17737138  0.84116294  0.31124899  1.0
  O  O6354  1  0.26070471  0.00782961  0.31124899  1.0
  O  O6355  1  0.26070471  0.17449628  0.31124899  1.0
  O  O6356  1  0.26070471  0.34116294  0.31124899  1.0
  O  O6357  1  0.26070471  0.50782961  0.31124899  1.0
  O  O6358  1  0.26070471  0.67449628  0.31124899  1.0
  O  O6359  1  0.26070471  0.84116294  0.31124899  1.0
  O  O6360  1  0.34403804  0.00782961  0.31124899  1.0
  O  O6361  1  0.34403804  0.17449628  0.31124899  1.0
  O  O6362  1  0.34403804  0.34116294  0.31124899  1.0
  O  O6363  1  0.34403804  0.50782961  0.31124899  1.0
  O  O6364  1  0.34403804  0.67449628  0.31124899  1.0
  O  O6365  1  0.34403804  0.84116294  0.31124899  1.0
  O  O6366  1  0.42737138  0.00782961  0.31124899  1.0
  O  O6367  1  0.42737138  0.17449628  0.31124899  1.0
  O  O6368  1  0.42737138  0.34116294  0.31124899  1.0
  O  O6369  1  0.42737138  0.50782961  0.31124899  1.0
  O  O6370  1  0.42737138  0.67449628  0.31124899  1.0
  O  O6371  1  0.42737138  0.84116294  0.31124899  1.0
  O  O6372  1  0.51070471  0.00782961  0.31124899  1.0
  O  O6373  1  0.51070471  0.17449628  0.31124899  1.0
  O  O6374  1  0.51070471  0.34116294  0.31124899  1.0
  O  O6375  1  0.51070471  0.50782961  0.31124899  1.0
  O  O6376  1  0.51070471  0.67449628  0.31124899  1.0
  O  O6377  1  0.51070471  0.84116294  0.31124899  1.0
  O  O6378  1  0.59403804  0.00782961  0.31124899  1.0
  O  O6379  1  0.59403804  0.17449628  0.31124899  1.0
  O  O6380  1  0.59403804  0.34116294  0.31124899  1.0
  O  O6381  1  0.59403804  0.50782961  0.31124899  1.0
  O  O6382  1  0.59403804  0.67449628  0.31124899  1.0
  O  O6383  1  0.59403804  0.84116294  0.31124899  1.0
  O  O6384  1  0.67737138  0.00782961  0.31124899  1.0
  O  O6385  1  0.67737138  0.17449628  0.31124899  1.0
  O  O6386  1  0.67737138  0.34116294  0.31124899  1.0
  O  O6387  1  0.67737138  0.50782961  0.31124899  1.0
  O  O6388  1  0.67737138  0.67449628  0.31124899  1.0
  O  O6389  1  0.67737138  0.84116294  0.31124899  1.0
  O  O6390  1  0.76070471  0.00782961  0.31124899  1.0
  O  O6391  1  0.76070471  0.17449628  0.31124899  1.0
  O  O6392  1  0.76070471  0.34116294  0.31124899  1.0
  O  O6393  1  0.76070471  0.50782961  0.31124899  1.0
  O  O6394  1  0.76070471  0.67449628  0.31124899  1.0
  O  O6395  1  0.76070471  0.84116294  0.31124899  1.0
  O  O6396  1  0.84403804  0.00782961  0.31124899  1.0
  O  O6397  1  0.84403804  0.17449628  0.31124899  1.0
  O  O6398  1  0.84403804  0.34116294  0.31124899  1.0
  O  O6399  1  0.84403804  0.50782961  0.31124899  1.0
  O  O6400  1  0.84403804  0.67449628  0.31124899  1.0
  O  O6401  1  0.84403804  0.84116294  0.31124899  1.0
  O  O6402  1  0.92737138  0.00782961  0.31124899  1.0
  O  O6403  1  0.92737138  0.17449628  0.31124899  1.0
  O  O6404  1  0.92737138  0.34116294  0.31124899  1.0
  O  O6405  1  0.92737138  0.50782961  0.31124899  1.0
  O  O6406  1  0.92737138  0.67449628  0.31124899  1.0
  O  O6407  1  0.92737138  0.84116294  0.31124899  1.0
  O  O6408  1  0.03994730  0.00259969  0.34651976  1.0
  O  O6409  1  0.03994730  0.16926635  0.34651976  1.0
  O  O6410  1  0.03994730  0.33593302  0.34651976  1.0
  O  O6411  1  0.03994730  0.50259969  0.34651976  1.0
  O  O6412  1  0.03994730  0.66926635  0.34651976  1.0
  O  O6413  1  0.03994730  0.83593302  0.34651976  1.0
  O  O6414  1  0.12328064  0.00259969  0.34651976  1.0
  O  O6415  1  0.12328064  0.16926635  0.34651976  1.0
  O  O6416  1  0.12328064  0.33593302  0.34651976  1.0
  O  O6417  1  0.12328064  0.50259969  0.34651976  1.0
  O  O6418  1  0.12328064  0.66926635  0.34651976  1.0
  O  O6419  1  0.12328064  0.83593302  0.34651976  1.0
  O  O6420  1  0.20661397  0.00259969  0.34651976  1.0
  O  O6421  1  0.20661397  0.16926635  0.34651976  1.0
  O  O6422  1  0.20661397  0.33593302  0.34651976  1.0
  O  O6423  1  0.20661397  0.50259969  0.34651976  1.0
  O  O6424  1  0.20661397  0.66926635  0.34651976  1.0
  O  O6425  1  0.20661397  0.83593302  0.34651976  1.0
  O  O6426  1  0.28994730  0.00259969  0.34651976  1.0
  O  O6427  1  0.28994730  0.16926635  0.34651976  1.0
  O  O6428  1  0.28994730  0.33593302  0.34651976  1.0
  O  O6429  1  0.28994730  0.50259969  0.34651976  1.0
  O  O6430  1  0.28994730  0.66926635  0.34651976  1.0
  O  O6431  1  0.28994730  0.83593302  0.34651976  1.0
  O  O6432  1  0.37328064  0.00259969  0.34651976  1.0
  O  O6433  1  0.37328064  0.16926635  0.34651976  1.0
  O  O6434  1  0.37328064  0.33593302  0.34651976  1.0
  O  O6435  1  0.37328064  0.50259969  0.34651976  1.0
  O  O6436  1  0.37328064  0.66926635  0.34651976  1.0
  O  O6437  1  0.37328064  0.83593302  0.34651976  1.0
  O  O6438  1  0.45661397  0.00259969  0.34651976  1.0
  O  O6439  1  0.45661397  0.16926635  0.34651976  1.0
  O  O6440  1  0.45661397  0.33593302  0.34651976  1.0
  O  O6441  1  0.45661397  0.50259969  0.34651976  1.0
  O  O6442  1  0.45661397  0.66926635  0.34651976  1.0
  O  O6443  1  0.45661397  0.83593302  0.34651976  1.0
  O  O6444  1  0.53994730  0.00259969  0.34651976  1.0
  O  O6445  1  0.53994730  0.16926635  0.34651976  1.0
  O  O6446  1  0.53994730  0.33593302  0.34651976  1.0
  O  O6447  1  0.53994730  0.50259969  0.34651976  1.0
  O  O6448  1  0.53994730  0.66926635  0.34651976  1.0
  O  O6449  1  0.53994730  0.83593302  0.34651976  1.0
  O  O6450  1  0.62328064  0.00259969  0.34651976  1.0
  O  O6451  1  0.62328064  0.16926635  0.34651976  1.0
  O  O6452  1  0.62328064  0.33593302  0.34651976  1.0
  O  O6453  1  0.62328064  0.50259969  0.34651976  1.0
  O  O6454  1  0.62328064  0.66926635  0.34651976  1.0
  O  O6455  1  0.62328064  0.83593302  0.34651976  1.0
  O  O6456  1  0.70661397  0.00259969  0.34651976  1.0
  O  O6457  1  0.70661397  0.16926635  0.34651976  1.0
  O  O6458  1  0.70661397  0.33593302  0.34651976  1.0
  O  O6459  1  0.70661397  0.50259969  0.34651976  1.0
  O  O6460  1  0.70661397  0.66926635  0.34651976  1.0
  O  O6461  1  0.70661397  0.83593302  0.34651976  1.0
  O  O6462  1  0.78994730  0.00259969  0.34651976  1.0
  O  O6463  1  0.78994730  0.16926635  0.34651976  1.0
  O  O6464  1  0.78994730  0.33593302  0.34651976  1.0
  O  O6465  1  0.78994730  0.50259969  0.34651976  1.0
  O  O6466  1  0.78994730  0.66926635  0.34651976  1.0
  O  O6467  1  0.78994730  0.83593302  0.34651976  1.0
  O  O6468  1  0.87328064  0.00259969  0.34651976  1.0
  O  O6469  1  0.87328064  0.16926635  0.34651976  1.0
  O  O6470  1  0.87328064  0.33593302  0.34651976  1.0
  O  O6471  1  0.87328064  0.50259969  0.34651976  1.0
  O  O6472  1  0.87328064  0.66926635  0.34651976  1.0
  O  O6473  1  0.87328064  0.83593302  0.34651976  1.0
  O  O6474  1  0.95661397  0.00259969  0.34651976  1.0
  O  O6475  1  0.95661397  0.16926635  0.34651976  1.0
  O  O6476  1  0.95661397  0.33593302  0.34651976  1.0
  O  O6477  1  0.95661397  0.50259969  0.34651976  1.0
  O  O6478  1  0.95661397  0.66926635  0.34651976  1.0
  O  O6479  1  0.95661397  0.83593302  0.34651976  1.0
  O  O6480  1  0.06375683  0.01450445  0.27509118  1.0
  O  O6481  1  0.06375683  0.18117111  0.27509118  1.0
  O  O6482  1  0.06375683  0.34783778  0.27509118  1.0
  O  O6483  1  0.06375683  0.51450445  0.27509118  1.0
  O  O6484  1  0.06375683  0.68117111  0.27509118  1.0
  O  O6485  1  0.06375683  0.84783778  0.27509118  1.0
  O  O6486  1  0.14709016  0.01450445  0.27509118  1.0
  O  O6487  1  0.14709016  0.18117111  0.27509118  1.0
  O  O6488  1  0.14709016  0.34783778  0.27509118  1.0
  O  O6489  1  0.14709016  0.51450445  0.27509118  1.0
  O  O6490  1  0.14709016  0.68117111  0.27509118  1.0
  O  O6491  1  0.14709016  0.84783778  0.27509118  1.0
  O  O6492  1  0.23042349  0.01450445  0.27509118  1.0
  O  O6493  1  0.23042349  0.18117111  0.27509118  1.0
  O  O6494  1  0.23042349  0.34783778  0.27509118  1.0
  O  O6495  1  0.23042349  0.51450445  0.27509118  1.0
  O  O6496  1  0.23042349  0.68117111  0.27509118  1.0
  O  O6497  1  0.23042349  0.84783778  0.27509118  1.0
  O  O6498  1  0.31375683  0.01450445  0.27509118  1.0
  O  O6499  1  0.31375683  0.18117111  0.27509118  1.0
  O  O6500  1  0.31375683  0.34783778  0.27509118  1.0
  O  O6501  1  0.31375683  0.51450445  0.27509118  1.0
  O  O6502  1  0.31375683  0.68117111  0.27509118  1.0
  O  O6503  1  0.31375683  0.84783778  0.27509118  1.0
  O  O6504  1  0.39709016  0.01450445  0.27509118  1.0
  O  O6505  1  0.39709016  0.18117111  0.27509118  1.0
  O  O6506  1  0.39709016  0.34783778  0.27509118  1.0
  O  O6507  1  0.39709016  0.51450445  0.27509118  1.0
  O  O6508  1  0.39709016  0.68117111  0.27509118  1.0
  O  O6509  1  0.39709016  0.84783778  0.27509118  1.0
  O  O6510  1  0.48042349  0.01450445  0.27509118  1.0
  O  O6511  1  0.48042349  0.18117111  0.27509118  1.0
  O  O6512  1  0.48042349  0.34783778  0.27509118  1.0
  O  O6513  1  0.48042349  0.51450445  0.27509118  1.0
  O  O6514  1  0.48042349  0.68117111  0.27509118  1.0
  O  O6515  1  0.48042349  0.84783778  0.27509118  1.0
  O  O6516  1  0.56375683  0.01450445  0.27509118  1.0
  O  O6517  1  0.56375683  0.18117111  0.27509118  1.0
  O  O6518  1  0.56375683  0.34783778  0.27509118  1.0
  O  O6519  1  0.56375683  0.51450445  0.27509118  1.0
  O  O6520  1  0.56375683  0.68117111  0.27509118  1.0
  O  O6521  1  0.56375683  0.84783778  0.27509118  1.0
  O  O6522  1  0.64709016  0.01450445  0.27509118  1.0
  O  O6523  1  0.64709016  0.18117111  0.27509118  1.0
  O  O6524  1  0.64709016  0.34783778  0.27509118  1.0
  O  O6525  1  0.64709016  0.51450445  0.27509118  1.0
  O  O6526  1  0.64709016  0.68117111  0.27509118  1.0
  O  O6527  1  0.64709016  0.84783778  0.27509118  1.0
  O  O6528  1  0.73042349  0.01450445  0.27509118  1.0
  O  O6529  1  0.73042349  0.18117111  0.27509118  1.0
  O  O6530  1  0.73042349  0.34783778  0.27509118  1.0
  O  O6531  1  0.73042349  0.51450445  0.27509118  1.0
  O  O6532  1  0.73042349  0.68117111  0.27509118  1.0
  O  O6533  1  0.73042349  0.84783778  0.27509118  1.0
  O  O6534  1  0.81375683  0.01450445  0.27509118  1.0
  O  O6535  1  0.81375683  0.18117111  0.27509118  1.0
  O  O6536  1  0.81375683  0.34783778  0.27509118  1.0
  O  O6537  1  0.81375683  0.51450445  0.27509118  1.0
  O  O6538  1  0.81375683  0.68117111  0.27509118  1.0
  O  O6539  1  0.81375683  0.84783778  0.27509118  1.0
  O  O6540  1  0.89709016  0.01450445  0.27509118  1.0
  O  O6541  1  0.89709016  0.18117111  0.27509118  1.0
  O  O6542  1  0.89709016  0.34783778  0.27509118  1.0
  O  O6543  1  0.89709016  0.51450445  0.27509118  1.0
  O  O6544  1  0.89709016  0.68117111  0.27509118  1.0
  O  O6545  1  0.89709016  0.84783778  0.27509118  1.0
  O  O6546  1  0.98042349  0.01450445  0.27509118  1.0
  O  O6547  1  0.98042349  0.18117111  0.27509118  1.0
  O  O6548  1  0.98042349  0.34783778  0.27509118  1.0
  O  O6549  1  0.98042349  0.51450445  0.27509118  1.0
  O  O6550  1  0.98042349  0.68117111  0.27509118  1.0
  O  O6551  1  0.98042349  0.84783778  0.27509118  1.0
  O  O6552  1  0.03711760  0.04755500  0.35592084  1.0
  O  O6553  1  0.03711760  0.21422166  0.35592084  1.0
  O  O6554  1  0.03711760  0.38088833  0.35592084  1.0
  O  O6555  1  0.03711760  0.54755500  0.35592084  1.0
  O  O6556  1  0.03711760  0.71422166  0.35592084  1.0
  O  O6557  1  0.03711760  0.88088833  0.35592084  1.0
  O  O6558  1  0.12045093  0.04755500  0.35592084  1.0
  O  O6559  1  0.12045093  0.21422166  0.35592084  1.0
  O  O6560  1  0.12045093  0.38088833  0.35592084  1.0
  O  O6561  1  0.12045093  0.54755500  0.35592084  1.0
  O  O6562  1  0.12045093  0.71422166  0.35592084  1.0
  O  O6563  1  0.12045093  0.88088833  0.35592084  1.0
  O  O6564  1  0.20378427  0.04755500  0.35592084  1.0
  O  O6565  1  0.20378427  0.21422166  0.35592084  1.0
  O  O6566  1  0.20378427  0.38088833  0.35592084  1.0
  O  O6567  1  0.20378427  0.54755500  0.35592084  1.0
  O  O6568  1  0.20378427  0.71422166  0.35592084  1.0
  O  O6569  1  0.20378427  0.88088833  0.35592084  1.0
  O  O6570  1  0.28711760  0.04755500  0.35592084  1.0
  O  O6571  1  0.28711760  0.21422166  0.35592084  1.0
  O  O6572  1  0.28711760  0.38088833  0.35592084  1.0
  O  O6573  1  0.28711760  0.54755500  0.35592084  1.0
  O  O6574  1  0.28711760  0.71422166  0.35592084  1.0
  O  O6575  1  0.28711760  0.88088833  0.35592084  1.0
  O  O6576  1  0.37045093  0.04755500  0.35592084  1.0
  O  O6577  1  0.37045093  0.21422166  0.35592084  1.0
  O  O6578  1  0.37045093  0.38088833  0.35592084  1.0
  O  O6579  1  0.37045093  0.54755500  0.35592084  1.0
  O  O6580  1  0.37045093  0.71422166  0.35592084  1.0
  O  O6581  1  0.37045093  0.88088833  0.35592084  1.0
  O  O6582  1  0.45378427  0.04755500  0.35592084  1.0
  O  O6583  1  0.45378427  0.21422166  0.35592084  1.0
  O  O6584  1  0.45378427  0.38088833  0.35592084  1.0
  O  O6585  1  0.45378427  0.54755500  0.35592084  1.0
  O  O6586  1  0.45378427  0.71422166  0.35592084  1.0
  O  O6587  1  0.45378427  0.88088833  0.35592084  1.0
  O  O6588  1  0.53711760  0.04755500  0.35592084  1.0
  O  O6589  1  0.53711760  0.21422166  0.35592084  1.0
  O  O6590  1  0.53711760  0.38088833  0.35592084  1.0
  O  O6591  1  0.53711760  0.54755500  0.35592084  1.0
  O  O6592  1  0.53711760  0.71422166  0.35592084  1.0
  O  O6593  1  0.53711760  0.88088833  0.35592084  1.0
  O  O6594  1  0.62045093  0.04755500  0.35592084  1.0
  O  O6595  1  0.62045093  0.21422166  0.35592084  1.0
  O  O6596  1  0.62045093  0.38088833  0.35592084  1.0
  O  O6597  1  0.62045093  0.54755500  0.35592084  1.0
  O  O6598  1  0.62045093  0.71422166  0.35592084  1.0
  O  O6599  1  0.62045093  0.88088833  0.35592084  1.0
  O  O6600  1  0.70378427  0.04755500  0.35592084  1.0
  O  O6601  1  0.70378427  0.21422166  0.35592084  1.0
  O  O6602  1  0.70378427  0.38088833  0.35592084  1.0
  O  O6603  1  0.70378427  0.54755500  0.35592084  1.0
  O  O6604  1  0.70378427  0.71422166  0.35592084  1.0
  O  O6605  1  0.70378427  0.88088833  0.35592084  1.0
  O  O6606  1  0.78711760  0.04755500  0.35592084  1.0
  O  O6607  1  0.78711760  0.21422166  0.35592084  1.0
  O  O6608  1  0.78711760  0.38088833  0.35592084  1.0
  O  O6609  1  0.78711760  0.54755500  0.35592084  1.0
  O  O6610  1  0.78711760  0.71422166  0.35592084  1.0
  O  O6611  1  0.78711760  0.88088833  0.35592084  1.0
  O  O6612  1  0.87045093  0.04755500  0.35592084  1.0
  O  O6613  1  0.87045093  0.21422166  0.35592084  1.0
  O  O6614  1  0.87045093  0.38088833  0.35592084  1.0
  O  O6615  1  0.87045093  0.54755500  0.35592084  1.0
  O  O6616  1  0.87045093  0.71422166  0.35592084  1.0
  O  O6617  1  0.87045093  0.88088833  0.35592084  1.0
  O  O6618  1  0.95378427  0.04755500  0.35592084  1.0
  O  O6619  1  0.95378427  0.21422166  0.35592084  1.0
  O  O6620  1  0.95378427  0.38088833  0.35592084  1.0
  O  O6621  1  0.95378427  0.54755500  0.35592084  1.0
  O  O6622  1  0.95378427  0.71422166  0.35592084  1.0
  O  O6623  1  0.95378427  0.88088833  0.35592084  1.0
  O  O6624  1  0.06092712  0.05945976  0.28449227  1.0
  O  O6625  1  0.06092712  0.22612642  0.28449227  1.0
  O  O6626  1  0.06092712  0.39279309  0.28449227  1.0
  O  O6627  1  0.06092712  0.55945976  0.28449227  1.0
  O  O6628  1  0.06092712  0.72612642  0.28449227  1.0
  O  O6629  1  0.06092712  0.89279309  0.28449227  1.0
  O  O6630  1  0.14426046  0.05945976  0.28449227  1.0
  O  O6631  1  0.14426046  0.22612642  0.28449227  1.0
  O  O6632  1  0.14426046  0.39279309  0.28449227  1.0
  O  O6633  1  0.14426046  0.55945976  0.28449227  1.0
  O  O6634  1  0.14426046  0.72612642  0.28449227  1.0
  O  O6635  1  0.14426046  0.89279309  0.28449227  1.0
  O  O6636  1  0.22759379  0.05945976  0.28449227  1.0
  O  O6637  1  0.22759379  0.22612642  0.28449227  1.0
  O  O6638  1  0.22759379  0.39279309  0.28449227  1.0
  O  O6639  1  0.22759379  0.55945976  0.28449227  1.0
  O  O6640  1  0.22759379  0.72612642  0.28449227  1.0
  O  O6641  1  0.22759379  0.89279309  0.28449227  1.0
  O  O6642  1  0.31092712  0.05945976  0.28449227  1.0
  O  O6643  1  0.31092712  0.22612642  0.28449227  1.0
  O  O6644  1  0.31092712  0.39279309  0.28449227  1.0
  O  O6645  1  0.31092712  0.55945976  0.28449227  1.0
  O  O6646  1  0.31092712  0.72612642  0.28449227  1.0
  O  O6647  1  0.31092712  0.89279309  0.28449227  1.0
  O  O6648  1  0.39426046  0.05945976  0.28449227  1.0
  O  O6649  1  0.39426046  0.22612642  0.28449227  1.0
  O  O6650  1  0.39426046  0.39279309  0.28449227  1.0
  O  O6651  1  0.39426046  0.55945976  0.28449227  1.0
  O  O6652  1  0.39426046  0.72612642  0.28449227  1.0
  O  O6653  1  0.39426046  0.89279309  0.28449227  1.0
  O  O6654  1  0.47759379  0.05945976  0.28449227  1.0
  O  O6655  1  0.47759379  0.22612642  0.28449227  1.0
  O  O6656  1  0.47759379  0.39279309  0.28449227  1.0
  O  O6657  1  0.47759379  0.55945976  0.28449227  1.0
  O  O6658  1  0.47759379  0.72612642  0.28449227  1.0
  O  O6659  1  0.47759379  0.89279309  0.28449227  1.0
  O  O6660  1  0.56092712  0.05945976  0.28449227  1.0
  O  O6661  1  0.56092712  0.22612642  0.28449227  1.0
  O  O6662  1  0.56092712  0.39279309  0.28449227  1.0
  O  O6663  1  0.56092712  0.55945976  0.28449227  1.0
  O  O6664  1  0.56092712  0.72612642  0.28449227  1.0
  O  O6665  1  0.56092712  0.89279309  0.28449227  1.0
  O  O6666  1  0.64426046  0.05945976  0.28449227  1.0
  O  O6667  1  0.64426046  0.22612642  0.28449227  1.0
  O  O6668  1  0.64426046  0.39279309  0.28449227  1.0
  O  O6669  1  0.64426046  0.55945976  0.28449227  1.0
  O  O6670  1  0.64426046  0.72612642  0.28449227  1.0
  O  O6671  1  0.64426046  0.89279309  0.28449227  1.0
  O  O6672  1  0.72759379  0.05945976  0.28449227  1.0
  O  O6673  1  0.72759379  0.22612642  0.28449227  1.0
  O  O6674  1  0.72759379  0.39279309  0.28449227  1.0
  O  O6675  1  0.72759379  0.55945976  0.28449227  1.0
  O  O6676  1  0.72759379  0.72612642  0.28449227  1.0
  O  O6677  1  0.72759379  0.89279309  0.28449227  1.0
  O  O6678  1  0.81092712  0.05945976  0.28449227  1.0
  O  O6679  1  0.81092712  0.22612642  0.28449227  1.0
  O  O6680  1  0.81092712  0.39279309  0.28449227  1.0
  O  O6681  1  0.81092712  0.55945976  0.28449227  1.0
  O  O6682  1  0.81092712  0.72612642  0.28449227  1.0
  O  O6683  1  0.81092712  0.89279309  0.28449227  1.0
  O  O6684  1  0.89426046  0.05945976  0.28449227  1.0
  O  O6685  1  0.89426046  0.22612642  0.28449227  1.0
  O  O6686  1  0.89426046  0.39279309  0.28449227  1.0
  O  O6687  1  0.89426046  0.55945976  0.28449227  1.0
  O  O6688  1  0.89426046  0.72612642  0.28449227  1.0
  O  O6689  1  0.89426046  0.89279309  0.28449227  1.0
  O  O6690  1  0.97759379  0.05945976  0.28449227  1.0
  O  O6691  1  0.97759379  0.22612642  0.28449227  1.0
  O  O6692  1  0.97759379  0.39279309  0.28449227  1.0
  O  O6693  1  0.97759379  0.55945976  0.28449227  1.0
  O  O6694  1  0.97759379  0.72612642  0.28449227  1.0
  O  O6695  1  0.97759379  0.89279309  0.28449227  1.0
  O  O6696  1  0.08219304  0.11793379  0.22508983  1.0
  O  O6697  1  0.08219304  0.28460046  0.22508983  1.0
  O  O6698  1  0.08219304  0.45126713  0.22508983  1.0
  O  O6699  1  0.08219304  0.61793379  0.22508983  1.0
  O  O6700  1  0.08219304  0.78460046  0.22508983  1.0
  O  O6701  1  0.08219304  0.95126713  0.22508983  1.0
  O  O6702  1  0.16552637  0.11793379  0.22508983  1.0
  O  O6703  1  0.16552637  0.28460046  0.22508983  1.0
  O  O6704  1  0.16552637  0.45126713  0.22508983  1.0
  O  O6705  1  0.16552637  0.61793379  0.22508983  1.0
  O  O6706  1  0.16552637  0.78460046  0.22508983  1.0
  O  O6707  1  0.16552637  0.95126713  0.22508983  1.0
  O  O6708  1  0.24885970  0.11793379  0.22508983  1.0
  O  O6709  1  0.24885970  0.28460046  0.22508983  1.0
  O  O6710  1  0.24885970  0.45126713  0.22508983  1.0
  O  O6711  1  0.24885970  0.61793379  0.22508983  1.0
  O  O6712  1  0.24885970  0.78460046  0.22508983  1.0
  O  O6713  1  0.24885970  0.95126713  0.22508983  1.0
  O  O6714  1  0.33219304  0.11793379  0.22508983  1.0
  O  O6715  1  0.33219304  0.28460046  0.22508983  1.0
  O  O6716  1  0.33219304  0.45126713  0.22508983  1.0
  O  O6717  1  0.33219304  0.61793379  0.22508983  1.0
  O  O6718  1  0.33219304  0.78460046  0.22508983  1.0
  O  O6719  1  0.33219304  0.95126713  0.22508983  1.0
  O  O6720  1  0.41552637  0.11793379  0.22508983  1.0
  O  O6721  1  0.41552637  0.28460046  0.22508983  1.0
  O  O6722  1  0.41552637  0.45126713  0.22508983  1.0
  O  O6723  1  0.41552637  0.61793379  0.22508983  1.0
  O  O6724  1  0.41552637  0.78460046  0.22508983  1.0
  O  O6725  1  0.41552637  0.95126713  0.22508983  1.0
  O  O6726  1  0.49885970  0.11793379  0.22508983  1.0
  O  O6727  1  0.49885970  0.28460046  0.22508983  1.0
  O  O6728  1  0.49885970  0.45126713  0.22508983  1.0
  O  O6729  1  0.49885970  0.61793379  0.22508983  1.0
  O  O6730  1  0.49885970  0.78460046  0.22508983  1.0
  O  O6731  1  0.49885970  0.95126713  0.22508983  1.0
  O  O6732  1  0.58219304  0.11793379  0.22508983  1.0
  O  O6733  1  0.58219304  0.28460046  0.22508983  1.0
  O  O6734  1  0.58219304  0.45126713  0.22508983  1.0
  O  O6735  1  0.58219304  0.61793379  0.22508983  1.0
  O  O6736  1  0.58219304  0.78460046  0.22508983  1.0
  O  O6737  1  0.58219304  0.95126713  0.22508983  1.0
  O  O6738  1  0.66552637  0.11793379  0.22508983  1.0
  O  O6739  1  0.66552637  0.28460046  0.22508983  1.0
  O  O6740  1  0.66552637  0.45126713  0.22508983  1.0
  O  O6741  1  0.66552637  0.61793379  0.22508983  1.0
  O  O6742  1  0.66552637  0.78460046  0.22508983  1.0
  O  O6743  1  0.66552637  0.95126713  0.22508983  1.0
  O  O6744  1  0.74885970  0.11793379  0.22508983  1.0
  O  O6745  1  0.74885970  0.28460046  0.22508983  1.0
  O  O6746  1  0.74885970  0.45126713  0.22508983  1.0
  O  O6747  1  0.74885970  0.61793379  0.22508983  1.0
  O  O6748  1  0.74885970  0.78460046  0.22508983  1.0
  O  O6749  1  0.74885970  0.95126713  0.22508983  1.0
  O  O6750  1  0.83219304  0.11793379  0.22508983  1.0
  O  O6751  1  0.83219304  0.28460046  0.22508983  1.0
  O  O6752  1  0.83219304  0.45126713  0.22508983  1.0
  O  O6753  1  0.83219304  0.61793379  0.22508983  1.0
  O  O6754  1  0.83219304  0.78460046  0.22508983  1.0
  O  O6755  1  0.83219304  0.95126713  0.22508983  1.0
  O  O6756  1  0.91552637  0.11793379  0.22508983  1.0
  O  O6757  1  0.91552637  0.28460046  0.22508983  1.0
  O  O6758  1  0.91552637  0.45126713  0.22508983  1.0
  O  O6759  1  0.91552637  0.61793379  0.22508983  1.0
  O  O6760  1  0.91552637  0.78460046  0.22508983  1.0
  O  O6761  1  0.91552637  0.95126713  0.22508983  1.0
  O  O6762  1  0.99885970  0.11793379  0.22508983  1.0
  O  O6763  1  0.99885970  0.28460046  0.22508983  1.0
  O  O6764  1  0.99885970  0.45126713  0.22508983  1.0
  O  O6765  1  0.99885970  0.61793379  0.22508983  1.0
  O  O6766  1  0.99885970  0.78460046  0.22508983  1.0
  O  O6767  1  0.99885970  0.95126713  0.22508983  1.0
  O  O6768  1  0.05838351  0.10602903  0.29651840  1.0
  O  O6769  1  0.05838351  0.27269570  0.29651840  1.0
  O  O6770  1  0.05838351  0.43936236  0.29651840  1.0
  O  O6771  1  0.05838351  0.60602903  0.29651840  1.0
  O  O6772  1  0.05838351  0.77269570  0.29651840  1.0
  O  O6773  1  0.05838351  0.93936236  0.29651840  1.0
  O  O6774  1  0.14171685  0.10602903  0.29651840  1.0
  O  O6775  1  0.14171685  0.27269570  0.29651840  1.0
  O  O6776  1  0.14171685  0.43936236  0.29651840  1.0
  O  O6777  1  0.14171685  0.60602903  0.29651840  1.0
  O  O6778  1  0.14171685  0.77269570  0.29651840  1.0
  O  O6779  1  0.14171685  0.93936236  0.29651840  1.0
  O  O6780  1  0.22505018  0.10602903  0.29651840  1.0
  O  O6781  1  0.22505018  0.27269570  0.29651840  1.0
  O  O6782  1  0.22505018  0.43936236  0.29651840  1.0
  O  O6783  1  0.22505018  0.60602903  0.29651840  1.0
  O  O6784  1  0.22505018  0.77269570  0.29651840  1.0
  O  O6785  1  0.22505018  0.93936236  0.29651840  1.0
  O  O6786  1  0.30838351  0.10602903  0.29651840  1.0
  O  O6787  1  0.30838351  0.27269570  0.29651840  1.0
  O  O6788  1  0.30838351  0.43936236  0.29651840  1.0
  O  O6789  1  0.30838351  0.60602903  0.29651840  1.0
  O  O6790  1  0.30838351  0.77269570  0.29651840  1.0
  O  O6791  1  0.30838351  0.93936236  0.29651840  1.0
  O  O6792  1  0.39171685  0.10602903  0.29651840  1.0
  O  O6793  1  0.39171685  0.27269570  0.29651840  1.0
  O  O6794  1  0.39171685  0.43936236  0.29651840  1.0
  O  O6795  1  0.39171685  0.60602903  0.29651840  1.0
  O  O6796  1  0.39171685  0.77269570  0.29651840  1.0
  O  O6797  1  0.39171685  0.93936236  0.29651840  1.0
  O  O6798  1  0.47505018  0.10602903  0.29651840  1.0
  O  O6799  1  0.47505018  0.27269570  0.29651840  1.0
  O  O6800  1  0.47505018  0.43936236  0.29651840  1.0
  O  O6801  1  0.47505018  0.60602903  0.29651840  1.0
  O  O6802  1  0.47505018  0.77269570  0.29651840  1.0
  O  O6803  1  0.47505018  0.93936236  0.29651840  1.0
  O  O6804  1  0.55838351  0.10602903  0.29651840  1.0
  O  O6805  1  0.55838351  0.27269570  0.29651840  1.0
  O  O6806  1  0.55838351  0.43936236  0.29651840  1.0
  O  O6807  1  0.55838351  0.60602903  0.29651840  1.0
  O  O6808  1  0.55838351  0.77269570  0.29651840  1.0
  O  O6809  1  0.55838351  0.93936236  0.29651840  1.0
  O  O6810  1  0.64171685  0.10602903  0.29651840  1.0
  O  O6811  1  0.64171685  0.27269570  0.29651840  1.0
  O  O6812  1  0.64171685  0.43936236  0.29651840  1.0
  O  O6813  1  0.64171685  0.60602903  0.29651840  1.0
  O  O6814  1  0.64171685  0.77269570  0.29651840  1.0
  O  O6815  1  0.64171685  0.93936236  0.29651840  1.0
  O  O6816  1  0.72505018  0.10602903  0.29651840  1.0
  O  O6817  1  0.72505018  0.27269570  0.29651840  1.0
  O  O6818  1  0.72505018  0.43936236  0.29651840  1.0
  O  O6819  1  0.72505018  0.60602903  0.29651840  1.0
  O  O6820  1  0.72505018  0.77269570  0.29651840  1.0
  O  O6821  1  0.72505018  0.93936236  0.29651840  1.0
  O  O6822  1  0.80838351  0.10602903  0.29651840  1.0
  O  O6823  1  0.80838351  0.27269570  0.29651840  1.0
  O  O6824  1  0.80838351  0.43936236  0.29651840  1.0
  O  O6825  1  0.80838351  0.60602903  0.29651840  1.0
  O  O6826  1  0.80838351  0.77269570  0.29651840  1.0
  O  O6827  1  0.80838351  0.93936236  0.29651840  1.0
  O  O6828  1  0.89171685  0.10602903  0.29651840  1.0
  O  O6829  1  0.89171685  0.27269570  0.29651840  1.0
  O  O6830  1  0.89171685  0.43936236  0.29651840  1.0
  O  O6831  1  0.89171685  0.60602903  0.29651840  1.0
  O  O6832  1  0.89171685  0.77269570  0.29651840  1.0
  O  O6833  1  0.89171685  0.93936236  0.29651840  1.0
  O  O6834  1  0.97505018  0.10602903  0.29651840  1.0
  O  O6835  1  0.97505018  0.27269570  0.29651840  1.0
  O  O6836  1  0.97505018  0.43936236  0.29651840  1.0
  O  O6837  1  0.97505018  0.60602903  0.29651840  1.0
  O  O6838  1  0.97505018  0.77269570  0.29651840  1.0
  O  O6839  1  0.97505018  0.93936236  0.29651840  1.0
  O  O6840  1  0.08045202  0.02525820  0.35150907  1.0
  O  O6841  1  0.08045202  0.19192486  0.35150907  1.0
  O  O6842  1  0.08045202  0.35859153  0.35150907  1.0
  O  O6843  1  0.08045202  0.52525820  0.35150907  1.0
  O  O6844  1  0.08045202  0.69192486  0.35150907  1.0
  O  O6845  1  0.08045202  0.85859153  0.35150907  1.0
  O  O6846  1  0.16378535  0.02525820  0.35150907  1.0
  O  O6847  1  0.16378535  0.19192486  0.35150907  1.0
  O  O6848  1  0.16378535  0.35859153  0.35150907  1.0
  O  O6849  1  0.16378535  0.52525820  0.35150907  1.0
  O  O6850  1  0.16378535  0.69192486  0.35150907  1.0
  O  O6851  1  0.16378535  0.85859153  0.35150907  1.0
  O  O6852  1  0.24711868  0.02525820  0.35150907  1.0
  O  O6853  1  0.24711868  0.19192486  0.35150907  1.0
  O  O6854  1  0.24711868  0.35859153  0.35150907  1.0
  O  O6855  1  0.24711868  0.52525820  0.35150907  1.0
  O  O6856  1  0.24711868  0.69192486  0.35150907  1.0
  O  O6857  1  0.24711868  0.85859153  0.35150907  1.0
  O  O6858  1  0.33045202  0.02525820  0.35150907  1.0
  O  O6859  1  0.33045202  0.19192486  0.35150907  1.0
  O  O6860  1  0.33045202  0.35859153  0.35150907  1.0
  O  O6861  1  0.33045202  0.52525820  0.35150907  1.0
  O  O6862  1  0.33045202  0.69192486  0.35150907  1.0
  O  O6863  1  0.33045202  0.85859153  0.35150907  1.0
  O  O6864  1  0.41378535  0.02525820  0.35150907  1.0
  O  O6865  1  0.41378535  0.19192486  0.35150907  1.0
  O  O6866  1  0.41378535  0.35859153  0.35150907  1.0
  O  O6867  1  0.41378535  0.52525820  0.35150907  1.0
  O  O6868  1  0.41378535  0.69192486  0.35150907  1.0
  O  O6869  1  0.41378535  0.85859153  0.35150907  1.0
  O  O6870  1  0.49711868  0.02525820  0.35150907  1.0
  O  O6871  1  0.49711868  0.19192486  0.35150907  1.0
  O  O6872  1  0.49711868  0.35859153  0.35150907  1.0
  O  O6873  1  0.49711868  0.52525820  0.35150907  1.0
  O  O6874  1  0.49711868  0.69192486  0.35150907  1.0
  O  O6875  1  0.49711868  0.85859153  0.35150907  1.0
  O  O6876  1  0.58045202  0.02525820  0.35150907  1.0
  O  O6877  1  0.58045202  0.19192486  0.35150907  1.0
  O  O6878  1  0.58045202  0.35859153  0.35150907  1.0
  O  O6879  1  0.58045202  0.52525820  0.35150907  1.0
  O  O6880  1  0.58045202  0.69192486  0.35150907  1.0
  O  O6881  1  0.58045202  0.85859153  0.35150907  1.0
  O  O6882  1  0.66378535  0.02525820  0.35150907  1.0
  O  O6883  1  0.66378535  0.19192486  0.35150907  1.0
  O  O6884  1  0.66378535  0.35859153  0.35150907  1.0
  O  O6885  1  0.66378535  0.52525820  0.35150907  1.0
  O  O6886  1  0.66378535  0.69192486  0.35150907  1.0
  O  O6887  1  0.66378535  0.85859153  0.35150907  1.0
  O  O6888  1  0.74711868  0.02525820  0.35150907  1.0
  O  O6889  1  0.74711868  0.19192486  0.35150907  1.0
  O  O6890  1  0.74711868  0.35859153  0.35150907  1.0
  O  O6891  1  0.74711868  0.52525820  0.35150907  1.0
  O  O6892  1  0.74711868  0.69192486  0.35150907  1.0
  O  O6893  1  0.74711868  0.85859153  0.35150907  1.0
  O  O6894  1  0.83045202  0.02525820  0.35150907  1.0
  O  O6895  1  0.83045202  0.19192486  0.35150907  1.0
  O  O6896  1  0.83045202  0.35859153  0.35150907  1.0
  O  O6897  1  0.83045202  0.52525820  0.35150907  1.0
  O  O6898  1  0.83045202  0.69192486  0.35150907  1.0
  O  O6899  1  0.83045202  0.85859153  0.35150907  1.0
  O  O6900  1  0.91378535  0.02525820  0.35150907  1.0
  O  O6901  1  0.91378535  0.19192486  0.35150907  1.0
  O  O6902  1  0.91378535  0.35859153  0.35150907  1.0
  O  O6903  1  0.91378535  0.52525820  0.35150907  1.0
  O  O6904  1  0.91378535  0.69192486  0.35150907  1.0
  O  O6905  1  0.91378535  0.85859153  0.35150907  1.0
  O  O6906  1  0.99711868  0.02525820  0.35150907  1.0
  O  O6907  1  0.99711868  0.19192486  0.35150907  1.0
  O  O6908  1  0.99711868  0.35859153  0.35150907  1.0
  O  O6909  1  0.99711868  0.52525820  0.35150907  1.0
  O  O6910  1  0.99711868  0.69192486  0.35150907  1.0
  O  O6911  1  0.99711868  0.85859153  0.35150907  1.0
  O  O6912  1  0.02092821  0.03716296  0.28008050  1.0
  O  O6913  1  0.02092821  0.20382963  0.28008050  1.0
  O  O6914  1  0.02092821  0.37049629  0.28008050  1.0
  O  O6915  1  0.02092821  0.53716296  0.28008050  1.0
  O  O6916  1  0.02092821  0.70382963  0.28008050  1.0
  O  O6917  1  0.02092821  0.87049629  0.28008050  1.0
  O  O6918  1  0.10426154  0.03716296  0.28008050  1.0
  O  O6919  1  0.10426154  0.20382963  0.28008050  1.0
  O  O6920  1  0.10426154  0.37049629  0.28008050  1.0
  O  O6921  1  0.10426154  0.53716296  0.28008050  1.0
  O  O6922  1  0.10426154  0.70382963  0.28008050  1.0
  O  O6923  1  0.10426154  0.87049629  0.28008050  1.0
  O  O6924  1  0.18759487  0.03716296  0.28008050  1.0
  O  O6925  1  0.18759487  0.20382963  0.28008050  1.0
  O  O6926  1  0.18759487  0.37049629  0.28008050  1.0
  O  O6927  1  0.18759487  0.53716296  0.28008050  1.0
  O  O6928  1  0.18759487  0.70382963  0.28008050  1.0
  O  O6929  1  0.18759487  0.87049629  0.28008050  1.0
  O  O6930  1  0.27092821  0.03716296  0.28008050  1.0
  O  O6931  1  0.27092821  0.20382963  0.28008050  1.0
  O  O6932  1  0.27092821  0.37049629  0.28008050  1.0
  O  O6933  1  0.27092821  0.53716296  0.28008050  1.0
  O  O6934  1  0.27092821  0.70382963  0.28008050  1.0
  O  O6935  1  0.27092821  0.87049629  0.28008050  1.0
  O  O6936  1  0.35426154  0.03716296  0.28008050  1.0
  O  O6937  1  0.35426154  0.20382963  0.28008050  1.0
  O  O6938  1  0.35426154  0.37049629  0.28008050  1.0
  O  O6939  1  0.35426154  0.53716296  0.28008050  1.0
  O  O6940  1  0.35426154  0.70382963  0.28008050  1.0
  O  O6941  1  0.35426154  0.87049629  0.28008050  1.0
  O  O6942  1  0.43759487  0.03716296  0.28008050  1.0
  O  O6943  1  0.43759487  0.20382963  0.28008050  1.0
  O  O6944  1  0.43759487  0.37049629  0.28008050  1.0
  O  O6945  1  0.43759487  0.53716296  0.28008050  1.0
  O  O6946  1  0.43759487  0.70382963  0.28008050  1.0
  O  O6947  1  0.43759487  0.87049629  0.28008050  1.0
  O  O6948  1  0.52092821  0.03716296  0.28008050  1.0
  O  O6949  1  0.52092821  0.20382963  0.28008050  1.0
  O  O6950  1  0.52092821  0.37049629  0.28008050  1.0
  O  O6951  1  0.52092821  0.53716296  0.28008050  1.0
  O  O6952  1  0.52092821  0.70382963  0.28008050  1.0
  O  O6953  1  0.52092821  0.87049629  0.28008050  1.0
  O  O6954  1  0.60426154  0.03716296  0.28008050  1.0
  O  O6955  1  0.60426154  0.20382963  0.28008050  1.0
  O  O6956  1  0.60426154  0.37049629  0.28008050  1.0
  O  O6957  1  0.60426154  0.53716296  0.28008050  1.0
  O  O6958  1  0.60426154  0.70382963  0.28008050  1.0
  O  O6959  1  0.60426154  0.87049629  0.28008050  1.0
  O  O6960  1  0.68759487  0.03716296  0.28008050  1.0
  O  O6961  1  0.68759487  0.20382963  0.28008050  1.0
  O  O6962  1  0.68759487  0.37049629  0.28008050  1.0
  O  O6963  1  0.68759487  0.53716296  0.28008050  1.0
  O  O6964  1  0.68759487  0.70382963  0.28008050  1.0
  O  O6965  1  0.68759487  0.87049629  0.28008050  1.0
  O  O6966  1  0.77092821  0.03716296  0.28008050  1.0
  O  O6967  1  0.77092821  0.20382963  0.28008050  1.0
  O  O6968  1  0.77092821  0.37049629  0.28008050  1.0
  O  O6969  1  0.77092821  0.53716296  0.28008050  1.0
  O  O6970  1  0.77092821  0.70382963  0.28008050  1.0
  O  O6971  1  0.77092821  0.87049629  0.28008050  1.0
  O  O6972  1  0.85426154  0.03716296  0.28008050  1.0
  O  O6973  1  0.85426154  0.20382963  0.28008050  1.0
  O  O6974  1  0.85426154  0.37049629  0.28008050  1.0
  O  O6975  1  0.85426154  0.53716296  0.28008050  1.0
  O  O6976  1  0.85426154  0.70382963  0.28008050  1.0
  O  O6977  1  0.85426154  0.87049629  0.28008050  1.0
  O  O6978  1  0.93759487  0.03716296  0.28008050  1.0
  O  O6979  1  0.93759487  0.20382963  0.28008050  1.0
  O  O6980  1  0.93759487  0.37049629  0.28008050  1.0
  O  O6981  1  0.93759487  0.53716296  0.28008050  1.0
  O  O6982  1  0.93759487  0.70382963  0.28008050  1.0
  O  O6983  1  0.93759487  0.87049629  0.28008050  1.0
  O  O6984  1  0.04423689  0.12342358  0.33716262  1.0
  O  O6985  1  0.04423689  0.29009024  0.33716262  1.0
  O  O6986  1  0.04423689  0.45675691  0.33716262  1.0
  O  O6987  1  0.04423689  0.62342358  0.33716262  1.0
  O  O6988  1  0.04423689  0.79009024  0.33716262  1.0
  O  O6989  1  0.04423689  0.95675691  0.33716262  1.0
  O  O6990  1  0.12757022  0.12342358  0.33716262  1.0
  O  O6991  1  0.12757022  0.29009024  0.33716262  1.0
  O  O6992  1  0.12757022  0.45675691  0.33716262  1.0
  O  O6993  1  0.12757022  0.62342358  0.33716262  1.0
  O  O6994  1  0.12757022  0.79009024  0.33716262  1.0
  O  O6995  1  0.12757022  0.95675691  0.33716262  1.0
  O  O6996  1  0.21090356  0.12342358  0.33716262  1.0
  O  O6997  1  0.21090356  0.29009024  0.33716262  1.0
  O  O6998  1  0.21090356  0.45675691  0.33716262  1.0
  O  O6999  1  0.21090356  0.62342358  0.33716262  1.0
  O  O7000  1  0.21090356  0.79009024  0.33716262  1.0
  O  O7001  1  0.21090356  0.95675691  0.33716262  1.0
  O  O7002  1  0.29423689  0.12342358  0.33716262  1.0
  O  O7003  1  0.29423689  0.29009024  0.33716262  1.0
  O  O7004  1  0.29423689  0.45675691  0.33716262  1.0
  O  O7005  1  0.29423689  0.62342358  0.33716262  1.0
  O  O7006  1  0.29423689  0.79009024  0.33716262  1.0
  O  O7007  1  0.29423689  0.95675691  0.33716262  1.0
  O  O7008  1  0.37757022  0.12342358  0.33716262  1.0
  O  O7009  1  0.37757022  0.29009024  0.33716262  1.0
  O  O7010  1  0.37757022  0.45675691  0.33716262  1.0
  O  O7011  1  0.37757022  0.62342358  0.33716262  1.0
  O  O7012  1  0.37757022  0.79009024  0.33716262  1.0
  O  O7013  1  0.37757022  0.95675691  0.33716262  1.0
  O  O7014  1  0.46090356  0.12342358  0.33716262  1.0
  O  O7015  1  0.46090356  0.29009024  0.33716262  1.0
  O  O7016  1  0.46090356  0.45675691  0.33716262  1.0
  O  O7017  1  0.46090356  0.62342358  0.33716262  1.0
  O  O7018  1  0.46090356  0.79009024  0.33716262  1.0
  O  O7019  1  0.46090356  0.95675691  0.33716262  1.0
  O  O7020  1  0.54423689  0.12342358  0.33716262  1.0
  O  O7021  1  0.54423689  0.29009024  0.33716262  1.0
  O  O7022  1  0.54423689  0.45675691  0.33716262  1.0
  O  O7023  1  0.54423689  0.62342358  0.33716262  1.0
  O  O7024  1  0.54423689  0.79009024  0.33716262  1.0
  O  O7025  1  0.54423689  0.95675691  0.33716262  1.0
  O  O7026  1  0.62757022  0.12342358  0.33716262  1.0
  O  O7027  1  0.62757022  0.29009024  0.33716262  1.0
  O  O7028  1  0.62757022  0.45675691  0.33716262  1.0
  O  O7029  1  0.62757022  0.62342358  0.33716262  1.0
  O  O7030  1  0.62757022  0.79009024  0.33716262  1.0
  O  O7031  1  0.62757022  0.95675691  0.33716262  1.0
  O  O7032  1  0.71090356  0.12342358  0.33716262  1.0
  O  O7033  1  0.71090356  0.29009024  0.33716262  1.0
  O  O7034  1  0.71090356  0.45675691  0.33716262  1.0
  O  O7035  1  0.71090356  0.62342358  0.33716262  1.0
  O  O7036  1  0.71090356  0.79009024  0.33716262  1.0
  O  O7037  1  0.71090356  0.95675691  0.33716262  1.0
  O  O7038  1  0.79423689  0.12342358  0.33716262  1.0
  O  O7039  1  0.79423689  0.29009024  0.33716262  1.0
  O  O7040  1  0.79423689  0.45675691  0.33716262  1.0
  O  O7041  1  0.79423689  0.62342358  0.33716262  1.0
  O  O7042  1  0.79423689  0.79009024  0.33716262  1.0
  O  O7043  1  0.79423689  0.95675691  0.33716262  1.0
  O  O7044  1  0.87757022  0.12342358  0.33716262  1.0
  O  O7045  1  0.87757022  0.29009024  0.33716262  1.0
  O  O7046  1  0.87757022  0.45675691  0.33716262  1.0
  O  O7047  1  0.87757022  0.62342358  0.33716262  1.0
  O  O7048  1  0.87757022  0.79009024  0.33716262  1.0
  O  O7049  1  0.87757022  0.95675691  0.33716262  1.0
  O  O7050  1  0.96090356  0.12342358  0.33716262  1.0
  O  O7051  1  0.96090356  0.29009024  0.33716262  1.0
  O  O7052  1  0.96090356  0.45675691  0.33716262  1.0
  O  O7053  1  0.96090356  0.62342358  0.33716262  1.0
  O  O7054  1  0.96090356  0.79009024  0.33716262  1.0
  O  O7055  1  0.96090356  0.95675691  0.33716262  1.0
  O  O7056  1  0.06804641  0.13532834  0.26573405  1.0
  O  O7057  1  0.06804641  0.30199500  0.26573405  1.0
  O  O7058  1  0.06804641  0.46866167  0.26573405  1.0
  O  O7059  1  0.06804641  0.63532834  0.26573405  1.0
  O  O7060  1  0.06804641  0.80199500  0.26573405  1.0
  O  O7061  1  0.06804641  0.96866167  0.26573405  1.0
  O  O7062  1  0.15137975  0.13532834  0.26573405  1.0
  O  O7063  1  0.15137975  0.30199500  0.26573405  1.0
  O  O7064  1  0.15137975  0.46866167  0.26573405  1.0
  O  O7065  1  0.15137975  0.63532834  0.26573405  1.0
  O  O7066  1  0.15137975  0.80199500  0.26573405  1.0
  O  O7067  1  0.15137975  0.96866167  0.26573405  1.0
  O  O7068  1  0.23471308  0.13532834  0.26573405  1.0
  O  O7069  1  0.23471308  0.30199500  0.26573405  1.0
  O  O7070  1  0.23471308  0.46866167  0.26573405  1.0
  O  O7071  1  0.23471308  0.63532834  0.26573405  1.0
  O  O7072  1  0.23471308  0.80199500  0.26573405  1.0
  O  O7073  1  0.23471308  0.96866167  0.26573405  1.0
  O  O7074  1  0.31804641  0.13532834  0.26573405  1.0
  O  O7075  1  0.31804641  0.30199500  0.26573405  1.0
  O  O7076  1  0.31804641  0.46866167  0.26573405  1.0
  O  O7077  1  0.31804641  0.63532834  0.26573405  1.0
  O  O7078  1  0.31804641  0.80199500  0.26573405  1.0
  O  O7079  1  0.31804641  0.96866167  0.26573405  1.0
  O  O7080  1  0.40137975  0.13532834  0.26573405  1.0
  O  O7081  1  0.40137975  0.30199500  0.26573405  1.0
  O  O7082  1  0.40137975  0.46866167  0.26573405  1.0
  O  O7083  1  0.40137975  0.63532834  0.26573405  1.0
  O  O7084  1  0.40137975  0.80199500  0.26573405  1.0
  O  O7085  1  0.40137975  0.96866167  0.26573405  1.0
  O  O7086  1  0.48471308  0.13532834  0.26573405  1.0
  O  O7087  1  0.48471308  0.30199500  0.26573405  1.0
  O  O7088  1  0.48471308  0.46866167  0.26573405  1.0
  O  O7089  1  0.48471308  0.63532834  0.26573405  1.0
  O  O7090  1  0.48471308  0.80199500  0.26573405  1.0
  O  O7091  1  0.48471308  0.96866167  0.26573405  1.0
  O  O7092  1  0.56804641  0.13532834  0.26573405  1.0
  O  O7093  1  0.56804641  0.30199500  0.26573405  1.0
  O  O7094  1  0.56804641  0.46866167  0.26573405  1.0
  O  O7095  1  0.56804641  0.63532834  0.26573405  1.0
  O  O7096  1  0.56804641  0.80199500  0.26573405  1.0
  O  O7097  1  0.56804641  0.96866167  0.26573405  1.0
  O  O7098  1  0.65137975  0.13532834  0.26573405  1.0
  O  O7099  1  0.65137975  0.30199500  0.26573405  1.0
  O  O7100  1  0.65137975  0.46866167  0.26573405  1.0
  O  O7101  1  0.65137975  0.63532834  0.26573405  1.0
  O  O7102  1  0.65137975  0.80199500  0.26573405  1.0
  O  O7103  1  0.65137975  0.96866167  0.26573405  1.0
  O  O7104  1  0.73471308  0.13532834  0.26573405  1.0
  O  O7105  1  0.73471308  0.30199500  0.26573405  1.0
  O  O7106  1  0.73471308  0.46866167  0.26573405  1.0
  O  O7107  1  0.73471308  0.63532834  0.26573405  1.0
  O  O7108  1  0.73471308  0.80199500  0.26573405  1.0
  O  O7109  1  0.73471308  0.96866167  0.26573405  1.0
  O  O7110  1  0.81804641  0.13532834  0.26573405  1.0
  O  O7111  1  0.81804641  0.30199500  0.26573405  1.0
  O  O7112  1  0.81804641  0.46866167  0.26573405  1.0
  O  O7113  1  0.81804641  0.63532834  0.26573405  1.0
  O  O7114  1  0.81804641  0.80199500  0.26573405  1.0
  O  O7115  1  0.81804641  0.96866167  0.26573405  1.0
  O  O7116  1  0.90137975  0.13532834  0.26573405  1.0
  O  O7117  1  0.90137975  0.30199500  0.26573405  1.0
  O  O7118  1  0.90137975  0.46866167  0.26573405  1.0
  O  O7119  1  0.90137975  0.63532834  0.26573405  1.0
  O  O7120  1  0.90137975  0.80199500  0.26573405  1.0
  O  O7121  1  0.90137975  0.96866167  0.26573405  1.0
  O  O7122  1  0.98471308  0.13532834  0.26573405  1.0
  O  O7123  1  0.98471308  0.30199500  0.26573405  1.0
  O  O7124  1  0.98471308  0.46866167  0.26573405  1.0
  O  O7125  1  0.98471308  0.63532834  0.26573405  1.0
  O  O7126  1  0.98471308  0.80199500  0.26573405  1.0
  O  O7127  1  0.98471308  0.96866167  0.26573405  1.0
  O  O7128  1  0.00311750  0.14559117  0.34054238  1.0
  O  O7129  1  0.00311750  0.31225784  0.34054238  1.0
  O  O7130  1  0.00311750  0.47892451  0.34054238  1.0
  O  O7131  1  0.00311750  0.64559117  0.34054238  1.0
  O  O7132  1  0.00311750  0.81225784  0.34054238  1.0
  O  O7133  1  0.00311750  0.97892451  0.34054238  1.0
  O  O7134  1  0.08645083  0.14559117  0.34054238  1.0
  O  O7135  1  0.08645083  0.31225784  0.34054238  1.0
  O  O7136  1  0.08645083  0.47892451  0.34054238  1.0
  O  O7137  1  0.08645083  0.64559117  0.34054238  1.0
  O  O7138  1  0.08645083  0.81225784  0.34054238  1.0
  O  O7139  1  0.08645083  0.97892451  0.34054238  1.0
  O  O7140  1  0.16978417  0.14559117  0.34054238  1.0
  O  O7141  1  0.16978417  0.31225784  0.34054238  1.0
  O  O7142  1  0.16978417  0.47892451  0.34054238  1.0
  O  O7143  1  0.16978417  0.64559117  0.34054238  1.0
  O  O7144  1  0.16978417  0.81225784  0.34054238  1.0
  O  O7145  1  0.16978417  0.97892451  0.34054238  1.0
  O  O7146  1  0.25311750  0.14559117  0.34054238  1.0
  O  O7147  1  0.25311750  0.31225784  0.34054238  1.0
  O  O7148  1  0.25311750  0.47892451  0.34054238  1.0
  O  O7149  1  0.25311750  0.64559117  0.34054238  1.0
  O  O7150  1  0.25311750  0.81225784  0.34054238  1.0
  O  O7151  1  0.25311750  0.97892451  0.34054238  1.0
  O  O7152  1  0.33645083  0.14559117  0.34054238  1.0
  O  O7153  1  0.33645083  0.31225784  0.34054238  1.0
  O  O7154  1  0.33645083  0.47892451  0.34054238  1.0
  O  O7155  1  0.33645083  0.64559117  0.34054238  1.0
  O  O7156  1  0.33645083  0.81225784  0.34054238  1.0
  O  O7157  1  0.33645083  0.97892451  0.34054238  1.0
  O  O7158  1  0.41978417  0.14559117  0.34054238  1.0
  O  O7159  1  0.41978417  0.31225784  0.34054238  1.0
  O  O7160  1  0.41978417  0.47892451  0.34054238  1.0
  O  O7161  1  0.41978417  0.64559117  0.34054238  1.0
  O  O7162  1  0.41978417  0.81225784  0.34054238  1.0
  O  O7163  1  0.41978417  0.97892451  0.34054238  1.0
  O  O7164  1  0.50311750  0.14559117  0.34054238  1.0
  O  O7165  1  0.50311750  0.31225784  0.34054238  1.0
  O  O7166  1  0.50311750  0.47892451  0.34054238  1.0
  O  O7167  1  0.50311750  0.64559117  0.34054238  1.0
  O  O7168  1  0.50311750  0.81225784  0.34054238  1.0
  O  O7169  1  0.50311750  0.97892451  0.34054238  1.0
  O  O7170  1  0.58645083  0.14559117  0.34054238  1.0
  O  O7171  1  0.58645083  0.31225784  0.34054238  1.0
  O  O7172  1  0.58645083  0.47892451  0.34054238  1.0
  O  O7173  1  0.58645083  0.64559117  0.34054238  1.0
  O  O7174  1  0.58645083  0.81225784  0.34054238  1.0
  O  O7175  1  0.58645083  0.97892451  0.34054238  1.0
  O  O7176  1  0.66978417  0.14559117  0.34054238  1.0
  O  O7177  1  0.66978417  0.31225784  0.34054238  1.0
  O  O7178  1  0.66978417  0.47892451  0.34054238  1.0
  O  O7179  1  0.66978417  0.64559117  0.34054238  1.0
  O  O7180  1  0.66978417  0.81225784  0.34054238  1.0
  O  O7181  1  0.66978417  0.97892451  0.34054238  1.0
  O  O7182  1  0.75311750  0.14559117  0.34054238  1.0
  O  O7183  1  0.75311750  0.31225784  0.34054238  1.0
  O  O7184  1  0.75311750  0.47892451  0.34054238  1.0
  O  O7185  1  0.75311750  0.64559117  0.34054238  1.0
  O  O7186  1  0.75311750  0.81225784  0.34054238  1.0
  O  O7187  1  0.75311750  0.97892451  0.34054238  1.0
  O  O7188  1  0.83645083  0.14559117  0.34054238  1.0
  O  O7189  1  0.83645083  0.31225784  0.34054238  1.0
  O  O7190  1  0.83645083  0.47892451  0.34054238  1.0
  O  O7191  1  0.83645083  0.64559117  0.34054238  1.0
  O  O7192  1  0.83645083  0.81225784  0.34054238  1.0
  O  O7193  1  0.83645083  0.97892451  0.34054238  1.0
  O  O7194  1  0.91978417  0.14559117  0.34054238  1.0
  O  O7195  1  0.91978417  0.31225784  0.34054238  1.0
  O  O7196  1  0.91978417  0.47892451  0.34054238  1.0
  O  O7197  1  0.91978417  0.64559117  0.34054238  1.0
  O  O7198  1  0.91978417  0.81225784  0.34054238  1.0
  O  O7199  1  0.91978417  0.97892451  0.34054238  1.0
  O  O7200  1  0.02692703  0.15749594  0.26911381  1.0
  O  O7201  1  0.02692703  0.32416260  0.26911381  1.0
  O  O7202  1  0.02692703  0.49082927  0.26911381  1.0
  O  O7203  1  0.02692703  0.65749594  0.26911381  1.0
  O  O7204  1  0.02692703  0.82416260  0.26911381  1.0
  O  O7205  1  0.02692703  0.99082927  0.26911381  1.0
  O  O7206  1  0.11026036  0.15749594  0.26911381  1.0
  O  O7207  1  0.11026036  0.32416260  0.26911381  1.0
  O  O7208  1  0.11026036  0.49082927  0.26911381  1.0
  O  O7209  1  0.11026036  0.65749594  0.26911381  1.0
  O  O7210  1  0.11026036  0.82416260  0.26911381  1.0
  O  O7211  1  0.11026036  0.99082927  0.26911381  1.0
  O  O7212  1  0.19359369  0.15749594  0.26911381  1.0
  O  O7213  1  0.19359369  0.32416260  0.26911381  1.0
  O  O7214  1  0.19359369  0.49082927  0.26911381  1.0
  O  O7215  1  0.19359369  0.65749594  0.26911381  1.0
  O  O7216  1  0.19359369  0.82416260  0.26911381  1.0
  O  O7217  1  0.19359369  0.99082927  0.26911381  1.0
  O  O7218  1  0.27692703  0.15749594  0.26911381  1.0
  O  O7219  1  0.27692703  0.32416260  0.26911381  1.0
  O  O7220  1  0.27692703  0.49082927  0.26911381  1.0
  O  O7221  1  0.27692703  0.65749594  0.26911381  1.0
  O  O7222  1  0.27692703  0.82416260  0.26911381  1.0
  O  O7223  1  0.27692703  0.99082927  0.26911381  1.0
  O  O7224  1  0.36026036  0.15749594  0.26911381  1.0
  O  O7225  1  0.36026036  0.32416260  0.26911381  1.0
  O  O7226  1  0.36026036  0.49082927  0.26911381  1.0
  O  O7227  1  0.36026036  0.65749594  0.26911381  1.0
  O  O7228  1  0.36026036  0.82416260  0.26911381  1.0
  O  O7229  1  0.36026036  0.99082927  0.26911381  1.0
  O  O7230  1  0.44359369  0.15749594  0.26911381  1.0
  O  O7231  1  0.44359369  0.32416260  0.26911381  1.0
  O  O7232  1  0.44359369  0.49082927  0.26911381  1.0
  O  O7233  1  0.44359369  0.65749594  0.26911381  1.0
  O  O7234  1  0.44359369  0.82416260  0.26911381  1.0
  O  O7235  1  0.44359369  0.99082927  0.26911381  1.0
  O  O7236  1  0.52692703  0.15749594  0.26911381  1.0
  O  O7237  1  0.52692703  0.32416260  0.26911381  1.0
  O  O7238  1  0.52692703  0.49082927  0.26911381  1.0
  O  O7239  1  0.52692703  0.65749594  0.26911381  1.0
  O  O7240  1  0.52692703  0.82416260  0.26911381  1.0
  O  O7241  1  0.52692703  0.99082927  0.26911381  1.0
  O  O7242  1  0.61026036  0.15749594  0.26911381  1.0
  O  O7243  1  0.61026036  0.32416260  0.26911381  1.0
  O  O7244  1  0.61026036  0.49082927  0.26911381  1.0
  O  O7245  1  0.61026036  0.65749594  0.26911381  1.0
  O  O7246  1  0.61026036  0.82416260  0.26911381  1.0
  O  O7247  1  0.61026036  0.99082927  0.26911381  1.0
  O  O7248  1  0.69359369  0.15749594  0.26911381  1.0
  O  O7249  1  0.69359369  0.32416260  0.26911381  1.0
  O  O7250  1  0.69359369  0.49082927  0.26911381  1.0
  O  O7251  1  0.69359369  0.65749594  0.26911381  1.0
  O  O7252  1  0.69359369  0.82416260  0.26911381  1.0
  O  O7253  1  0.69359369  0.99082927  0.26911381  1.0
  O  O7254  1  0.77692703  0.15749594  0.26911381  1.0
  O  O7255  1  0.77692703  0.32416260  0.26911381  1.0
  O  O7256  1  0.77692703  0.49082927  0.26911381  1.0
  O  O7257  1  0.77692703  0.65749594  0.26911381  1.0
  O  O7258  1  0.77692703  0.82416260  0.26911381  1.0
  O  O7259  1  0.77692703  0.99082927  0.26911381  1.0
  O  O7260  1  0.86026036  0.15749594  0.26911381  1.0
  O  O7261  1  0.86026036  0.32416260  0.26911381  1.0
  O  O7262  1  0.86026036  0.49082927  0.26911381  1.0
  O  O7263  1  0.86026036  0.65749594  0.26911381  1.0
  O  O7264  1  0.86026036  0.82416260  0.26911381  1.0
  O  O7265  1  0.86026036  0.99082927  0.26911381  1.0
  O  O7266  1  0.94359369  0.15749594  0.26911381  1.0
  O  O7267  1  0.94359369  0.32416260  0.26911381  1.0
  O  O7268  1  0.94359369  0.49082927  0.26911381  1.0
  O  O7269  1  0.94359369  0.65749594  0.26911381  1.0
  O  O7270  1  0.94359369  0.82416260  0.26911381  1.0
  O  O7271  1  0.94359369  0.99082927  0.26911381  1.0
  O  O7272  1  0.04044683  0.09387610  0.21938428  1.0
  O  O7273  1  0.04044683  0.26054277  0.21938428  1.0
  O  O7274  1  0.04044683  0.42720944  0.21938428  1.0
  O  O7275  1  0.04044683  0.59387610  0.21938428  1.0
  O  O7276  1  0.04044683  0.76054277  0.21938428  1.0
  O  O7277  1  0.04044683  0.92720944  0.21938428  1.0
  O  O7278  1  0.12378016  0.09387610  0.21938428  1.0
  O  O7279  1  0.12378016  0.26054277  0.21938428  1.0
  O  O7280  1  0.12378016  0.42720944  0.21938428  1.0
  O  O7281  1  0.12378016  0.59387610  0.21938428  1.0
  O  O7282  1  0.12378016  0.76054277  0.21938428  1.0
  O  O7283  1  0.12378016  0.92720944  0.21938428  1.0
  O  O7284  1  0.20711350  0.09387610  0.21938428  1.0
  O  O7285  1  0.20711350  0.26054277  0.21938428  1.0
  O  O7286  1  0.20711350  0.42720944  0.21938428  1.0
  O  O7287  1  0.20711350  0.59387610  0.21938428  1.0
  O  O7288  1  0.20711350  0.76054277  0.21938428  1.0
  O  O7289  1  0.20711350  0.92720944  0.21938428  1.0
  O  O7290  1  0.29044683  0.09387610  0.21938428  1.0
  O  O7291  1  0.29044683  0.26054277  0.21938428  1.0
  O  O7292  1  0.29044683  0.42720944  0.21938428  1.0
  O  O7293  1  0.29044683  0.59387610  0.21938428  1.0
  O  O7294  1  0.29044683  0.76054277  0.21938428  1.0
  O  O7295  1  0.29044683  0.92720944  0.21938428  1.0
  O  O7296  1  0.37378016  0.09387610  0.21938428  1.0
  O  O7297  1  0.37378016  0.26054277  0.21938428  1.0
  O  O7298  1  0.37378016  0.42720944  0.21938428  1.0
  O  O7299  1  0.37378016  0.59387610  0.21938428  1.0
  O  O7300  1  0.37378016  0.76054277  0.21938428  1.0
  O  O7301  1  0.37378016  0.92720944  0.21938428  1.0
  O  O7302  1  0.45711350  0.09387610  0.21938428  1.0
  O  O7303  1  0.45711350  0.26054277  0.21938428  1.0
  O  O7304  1  0.45711350  0.42720944  0.21938428  1.0
  O  O7305  1  0.45711350  0.59387610  0.21938428  1.0
  O  O7306  1  0.45711350  0.76054277  0.21938428  1.0
  O  O7307  1  0.45711350  0.92720944  0.21938428  1.0
  O  O7308  1  0.54044683  0.09387610  0.21938428  1.0
  O  O7309  1  0.54044683  0.26054277  0.21938428  1.0
  O  O7310  1  0.54044683  0.42720944  0.21938428  1.0
  O  O7311  1  0.54044683  0.59387610  0.21938428  1.0
  O  O7312  1  0.54044683  0.76054277  0.21938428  1.0
  O  O7313  1  0.54044683  0.92720944  0.21938428  1.0
  O  O7314  1  0.62378016  0.09387610  0.21938428  1.0
  O  O7315  1  0.62378016  0.26054277  0.21938428  1.0
  O  O7316  1  0.62378016  0.42720944  0.21938428  1.0
  O  O7317  1  0.62378016  0.59387610  0.21938428  1.0
  O  O7318  1  0.62378016  0.76054277  0.21938428  1.0
  O  O7319  1  0.62378016  0.92720944  0.21938428  1.0
  O  O7320  1  0.70711350  0.09387610  0.21938428  1.0
  O  O7321  1  0.70711350  0.26054277  0.21938428  1.0
  O  O7322  1  0.70711350  0.42720944  0.21938428  1.0
  O  O7323  1  0.70711350  0.59387610  0.21938428  1.0
  O  O7324  1  0.70711350  0.76054277  0.21938428  1.0
  O  O7325  1  0.70711350  0.92720944  0.21938428  1.0
  O  O7326  1  0.79044683  0.09387610  0.21938428  1.0
  O  O7327  1  0.79044683  0.26054277  0.21938428  1.0
  O  O7328  1  0.79044683  0.42720944  0.21938428  1.0
  O  O7329  1  0.79044683  0.59387610  0.21938428  1.0
  O  O7330  1  0.79044683  0.76054277  0.21938428  1.0
  O  O7331  1  0.79044683  0.92720944  0.21938428  1.0
  O  O7332  1  0.87378016  0.09387610  0.21938428  1.0
  O  O7333  1  0.87378016  0.26054277  0.21938428  1.0
  O  O7334  1  0.87378016  0.42720944  0.21938428  1.0
  O  O7335  1  0.87378016  0.59387610  0.21938428  1.0
  O  O7336  1  0.87378016  0.76054277  0.21938428  1.0
  O  O7337  1  0.87378016  0.92720944  0.21938428  1.0
  O  O7338  1  0.95711350  0.09387610  0.21938428  1.0
  O  O7339  1  0.95711350  0.26054277  0.21938428  1.0
  O  O7340  1  0.95711350  0.42720944  0.21938428  1.0
  O  O7341  1  0.95711350  0.59387610  0.21938428  1.0
  O  O7342  1  0.95711350  0.76054277  0.21938428  1.0
  O  O7343  1  0.95711350  0.92720944  0.21938428  1.0
  O  O7344  1  0.01663731  0.08197134  0.29081285  1.0
  O  O7345  1  0.01663731  0.24863801  0.29081285  1.0
  O  O7346  1  0.01663731  0.41530467  0.29081285  1.0
  O  O7347  1  0.01663731  0.58197134  0.29081285  1.0
  O  O7348  1  0.01663731  0.74863801  0.29081285  1.0
  O  O7349  1  0.01663731  0.91530467  0.29081285  1.0
  O  O7350  1  0.09997064  0.08197134  0.29081285  1.0
  O  O7351  1  0.09997064  0.24863801  0.29081285  1.0
  O  O7352  1  0.09997064  0.41530467  0.29081285  1.0
  O  O7353  1  0.09997064  0.58197134  0.29081285  1.0
  O  O7354  1  0.09997064  0.74863801  0.29081285  1.0
  O  O7355  1  0.09997064  0.91530467  0.29081285  1.0
  O  O7356  1  0.18330397  0.08197134  0.29081285  1.0
  O  O7357  1  0.18330397  0.24863801  0.29081285  1.0
  O  O7358  1  0.18330397  0.41530467  0.29081285  1.0
  O  O7359  1  0.18330397  0.58197134  0.29081285  1.0
  O  O7360  1  0.18330397  0.74863801  0.29081285  1.0
  O  O7361  1  0.18330397  0.91530467  0.29081285  1.0
  O  O7362  1  0.26663731  0.08197134  0.29081285  1.0
  O  O7363  1  0.26663731  0.24863801  0.29081285  1.0
  O  O7364  1  0.26663731  0.41530467  0.29081285  1.0
  O  O7365  1  0.26663731  0.58197134  0.29081285  1.0
  O  O7366  1  0.26663731  0.74863801  0.29081285  1.0
  O  O7367  1  0.26663731  0.91530467  0.29081285  1.0
  O  O7368  1  0.34997064  0.08197134  0.29081285  1.0
  O  O7369  1  0.34997064  0.24863801  0.29081285  1.0
  O  O7370  1  0.34997064  0.41530467  0.29081285  1.0
  O  O7371  1  0.34997064  0.58197134  0.29081285  1.0
  O  O7372  1  0.34997064  0.74863801  0.29081285  1.0
  O  O7373  1  0.34997064  0.91530467  0.29081285  1.0
  O  O7374  1  0.43330397  0.08197134  0.29081285  1.0
  O  O7375  1  0.43330397  0.24863801  0.29081285  1.0
  O  O7376  1  0.43330397  0.41530467  0.29081285  1.0
  O  O7377  1  0.43330397  0.58197134  0.29081285  1.0
  O  O7378  1  0.43330397  0.74863801  0.29081285  1.0
  O  O7379  1  0.43330397  0.91530467  0.29081285  1.0
  O  O7380  1  0.51663731  0.08197134  0.29081285  1.0
  O  O7381  1  0.51663731  0.24863801  0.29081285  1.0
  O  O7382  1  0.51663731  0.41530467  0.29081285  1.0
  O  O7383  1  0.51663731  0.58197134  0.29081285  1.0
  O  O7384  1  0.51663731  0.74863801  0.29081285  1.0
  O  O7385  1  0.51663731  0.91530467  0.29081285  1.0
  O  O7386  1  0.59997064  0.08197134  0.29081285  1.0
  O  O7387  1  0.59997064  0.24863801  0.29081285  1.0
  O  O7388  1  0.59997064  0.41530467  0.29081285  1.0
  O  O7389  1  0.59997064  0.58197134  0.29081285  1.0
  O  O7390  1  0.59997064  0.74863801  0.29081285  1.0
  O  O7391  1  0.59997064  0.91530467  0.29081285  1.0
  O  O7392  1  0.68330397  0.08197134  0.29081285  1.0
  O  O7393  1  0.68330397  0.24863801  0.29081285  1.0
  O  O7394  1  0.68330397  0.41530467  0.29081285  1.0
  O  O7395  1  0.68330397  0.58197134  0.29081285  1.0
  O  O7396  1  0.68330397  0.74863801  0.29081285  1.0
  O  O7397  1  0.68330397  0.91530467  0.29081285  1.0
  O  O7398  1  0.76663731  0.08197134  0.29081285  1.0
  O  O7399  1  0.76663731  0.24863801  0.29081285  1.0
  O  O7400  1  0.76663731  0.41530467  0.29081285  1.0
  O  O7401  1  0.76663731  0.58197134  0.29081285  1.0
  O  O7402  1  0.76663731  0.74863801  0.29081285  1.0
  O  O7403  1  0.76663731  0.91530467  0.29081285  1.0
  O  O7404  1  0.84997064  0.08197134  0.29081285  1.0
  O  O7405  1  0.84997064  0.24863801  0.29081285  1.0
  O  O7406  1  0.84997064  0.41530467  0.29081285  1.0
  O  O7407  1  0.84997064  0.58197134  0.29081285  1.0
  O  O7408  1  0.84997064  0.74863801  0.29081285  1.0
  O  O7409  1  0.84997064  0.91530467  0.29081285  1.0
  O  O7410  1  0.93330397  0.08197134  0.29081285  1.0
  O  O7411  1  0.93330397  0.24863801  0.29081285  1.0
  O  O7412  1  0.93330397  0.41530467  0.29081285  1.0
  O  O7413  1  0.93330397  0.58197134  0.29081285  1.0
  O  O7414  1  0.93330397  0.74863801  0.29081285  1.0
  O  O7415  1  0.93330397  0.91530467  0.29081285  1.0
  O  O7416  1  0.04467501  0.07643806  0.32663450  1.0
  O  O7417  1  0.04467501  0.24310473  0.32663450  1.0
  O  O7418  1  0.04467501  0.40977139  0.32663450  1.0
  O  O7419  1  0.04467501  0.57643806  0.32663450  1.0
  O  O7420  1  0.04467501  0.74310473  0.32663450  1.0
  O  O7421  1  0.04467501  0.90977139  0.32663450  1.0
  O  O7422  1  0.12800834  0.07643806  0.32663450  1.0
  O  O7423  1  0.12800834  0.24310473  0.32663450  1.0
  O  O7424  1  0.12800834  0.40977139  0.32663450  1.0
  O  O7425  1  0.12800834  0.57643806  0.32663450  1.0
  O  O7426  1  0.12800834  0.74310473  0.32663450  1.0
  O  O7427  1  0.12800834  0.90977139  0.32663450  1.0
  O  O7428  1  0.21134167  0.07643806  0.32663450  1.0
  O  O7429  1  0.21134167  0.24310473  0.32663450  1.0
  O  O7430  1  0.21134167  0.40977139  0.32663450  1.0
  O  O7431  1  0.21134167  0.57643806  0.32663450  1.0
  O  O7432  1  0.21134167  0.74310473  0.32663450  1.0
  O  O7433  1  0.21134167  0.90977139  0.32663450  1.0
  O  O7434  1  0.29467501  0.07643806  0.32663450  1.0
  O  O7435  1  0.29467501  0.24310473  0.32663450  1.0
  O  O7436  1  0.29467501  0.40977139  0.32663450  1.0
  O  O7437  1  0.29467501  0.57643806  0.32663450  1.0
  O  O7438  1  0.29467501  0.74310473  0.32663450  1.0
  O  O7439  1  0.29467501  0.90977139  0.32663450  1.0
  O  O7440  1  0.37800834  0.07643806  0.32663450  1.0
  O  O7441  1  0.37800834  0.24310473  0.32663450  1.0
  O  O7442  1  0.37800834  0.40977139  0.32663450  1.0
  O  O7443  1  0.37800834  0.57643806  0.32663450  1.0
  O  O7444  1  0.37800834  0.74310473  0.32663450  1.0
  O  O7445  1  0.37800834  0.90977139  0.32663450  1.0
  O  O7446  1  0.46134167  0.07643806  0.32663450  1.0
  O  O7447  1  0.46134167  0.24310473  0.32663450  1.0
  O  O7448  1  0.46134167  0.40977139  0.32663450  1.0
  O  O7449  1  0.46134167  0.57643806  0.32663450  1.0
  O  O7450  1  0.46134167  0.74310473  0.32663450  1.0
  O  O7451  1  0.46134167  0.90977139  0.32663450  1.0
  O  O7452  1  0.54467501  0.07643806  0.32663450  1.0
  O  O7453  1  0.54467501  0.24310473  0.32663450  1.0
  O  O7454  1  0.54467501  0.40977139  0.32663450  1.0
  O  O7455  1  0.54467501  0.57643806  0.32663450  1.0
  O  O7456  1  0.54467501  0.74310473  0.32663450  1.0
  O  O7457  1  0.54467501  0.90977139  0.32663450  1.0
  O  O7458  1  0.62800834  0.07643806  0.32663450  1.0
  O  O7459  1  0.62800834  0.24310473  0.32663450  1.0
  O  O7460  1  0.62800834  0.40977139  0.32663450  1.0
  O  O7461  1  0.62800834  0.57643806  0.32663450  1.0
  O  O7462  1  0.62800834  0.74310473  0.32663450  1.0
  O  O7463  1  0.62800834  0.90977139  0.32663450  1.0
  O  O7464  1  0.71134167  0.07643806  0.32663450  1.0
  O  O7465  1  0.71134167  0.24310473  0.32663450  1.0
  O  O7466  1  0.71134167  0.40977139  0.32663450  1.0
  O  O7467  1  0.71134167  0.57643806  0.32663450  1.0
  O  O7468  1  0.71134167  0.74310473  0.32663450  1.0
  O  O7469  1  0.71134167  0.90977139  0.32663450  1.0
  O  O7470  1  0.79467501  0.07643806  0.32663450  1.0
  O  O7471  1  0.79467501  0.24310473  0.32663450  1.0
  O  O7472  1  0.79467501  0.40977139  0.32663450  1.0
  O  O7473  1  0.79467501  0.57643806  0.32663450  1.0
  O  O7474  1  0.79467501  0.74310473  0.32663450  1.0
  O  O7475  1  0.79467501  0.90977139  0.32663450  1.0
  O  O7476  1  0.87800834  0.07643806  0.32663450  1.0
  O  O7477  1  0.87800834  0.24310473  0.32663450  1.0
  O  O7478  1  0.87800834  0.40977139  0.32663450  1.0
  O  O7479  1  0.87800834  0.57643806  0.32663450  1.0
  O  O7480  1  0.87800834  0.74310473  0.32663450  1.0
  O  O7481  1  0.87800834  0.90977139  0.32663450  1.0
  O  O7482  1  0.96134167  0.07643806  0.32663450  1.0
  O  O7483  1  0.96134167  0.24310473  0.32663450  1.0
  O  O7484  1  0.96134167  0.40977139  0.32663450  1.0
  O  O7485  1  0.96134167  0.57643806  0.32663450  1.0
  O  O7486  1  0.96134167  0.74310473  0.32663450  1.0
  O  O7487  1  0.96134167  0.90977139  0.32663450  1.0
  O  O7488  1  0.06848453  0.08834282  0.25520592  1.0
  O  O7489  1  0.06848453  0.25500949  0.25520592  1.0
  O  O7490  1  0.06848453  0.42167616  0.25520592  1.0
  O  O7491  1  0.06848453  0.58834282  0.25520592  1.0
  O  O7492  1  0.06848453  0.75500949  0.25520592  1.0
  O  O7493  1  0.06848453  0.92167616  0.25520592  1.0
  O  O7494  1  0.15181786  0.08834282  0.25520592  1.0
  O  O7495  1  0.15181786  0.25500949  0.25520592  1.0
  O  O7496  1  0.15181786  0.42167616  0.25520592  1.0
  O  O7497  1  0.15181786  0.58834282  0.25520592  1.0
  O  O7498  1  0.15181786  0.75500949  0.25520592  1.0
  O  O7499  1  0.15181786  0.92167616  0.25520592  1.0
  O  O7500  1  0.23515120  0.08834282  0.25520592  1.0
  O  O7501  1  0.23515120  0.25500949  0.25520592  1.0
  O  O7502  1  0.23515120  0.42167616  0.25520592  1.0
  O  O7503  1  0.23515120  0.58834282  0.25520592  1.0
  O  O7504  1  0.23515120  0.75500949  0.25520592  1.0
  O  O7505  1  0.23515120  0.92167616  0.25520592  1.0
  O  O7506  1  0.31848453  0.08834282  0.25520592  1.0
  O  O7507  1  0.31848453  0.25500949  0.25520592  1.0
  O  O7508  1  0.31848453  0.42167616  0.25520592  1.0
  O  O7509  1  0.31848453  0.58834282  0.25520592  1.0
  O  O7510  1  0.31848453  0.75500949  0.25520592  1.0
  O  O7511  1  0.31848453  0.92167616  0.25520592  1.0
  O  O7512  1  0.40181786  0.08834282  0.25520592  1.0
  O  O7513  1  0.40181786  0.25500949  0.25520592  1.0
  O  O7514  1  0.40181786  0.42167616  0.25520592  1.0
  O  O7515  1  0.40181786  0.58834282  0.25520592  1.0
  O  O7516  1  0.40181786  0.75500949  0.25520592  1.0
  O  O7517  1  0.40181786  0.92167616  0.25520592  1.0
  O  O7518  1  0.48515120  0.08834282  0.25520592  1.0
  O  O7519  1  0.48515120  0.25500949  0.25520592  1.0
  O  O7520  1  0.48515120  0.42167616  0.25520592  1.0
  O  O7521  1  0.48515120  0.58834282  0.25520592  1.0
  O  O7522  1  0.48515120  0.75500949  0.25520592  1.0
  O  O7523  1  0.48515120  0.92167616  0.25520592  1.0
  O  O7524  1  0.56848453  0.08834282  0.25520592  1.0
  O  O7525  1  0.56848453  0.25500949  0.25520592  1.0
  O  O7526  1  0.56848453  0.42167616  0.25520592  1.0
  O  O7527  1  0.56848453  0.58834282  0.25520592  1.0
  O  O7528  1  0.56848453  0.75500949  0.25520592  1.0
  O  O7529  1  0.56848453  0.92167616  0.25520592  1.0
  O  O7530  1  0.65181786  0.08834282  0.25520592  1.0
  O  O7531  1  0.65181786  0.25500949  0.25520592  1.0
  O  O7532  1  0.65181786  0.42167616  0.25520592  1.0
  O  O7533  1  0.65181786  0.58834282  0.25520592  1.0
  O  O7534  1  0.65181786  0.75500949  0.25520592  1.0
  O  O7535  1  0.65181786  0.92167616  0.25520592  1.0
  O  O7536  1  0.73515120  0.08834282  0.25520592  1.0
  O  O7537  1  0.73515120  0.25500949  0.25520592  1.0
  O  O7538  1  0.73515120  0.42167616  0.25520592  1.0
  O  O7539  1  0.73515120  0.58834282  0.25520592  1.0
  O  O7540  1  0.73515120  0.75500949  0.25520592  1.0
  O  O7541  1  0.73515120  0.92167616  0.25520592  1.0
  O  O7542  1  0.81848453  0.08834282  0.25520592  1.0
  O  O7543  1  0.81848453  0.25500949  0.25520592  1.0
  O  O7544  1  0.81848453  0.42167616  0.25520592  1.0
  O  O7545  1  0.81848453  0.58834282  0.25520592  1.0
  O  O7546  1  0.81848453  0.75500949  0.25520592  1.0
  O  O7547  1  0.81848453  0.92167616  0.25520592  1.0
  O  O7548  1  0.90181786  0.08834282  0.25520592  1.0
  O  O7549  1  0.90181786  0.25500949  0.25520592  1.0
  O  O7550  1  0.90181786  0.42167616  0.25520592  1.0
  O  O7551  1  0.90181786  0.58834282  0.25520592  1.0
  O  O7552  1  0.90181786  0.75500949  0.25520592  1.0
  O  O7553  1  0.90181786  0.92167616  0.25520592  1.0
  O  O7554  1  0.98515120  0.08834282  0.25520592  1.0
  O  O7555  1  0.98515120  0.25500949  0.25520592  1.0
  O  O7556  1  0.98515120  0.42167616  0.25520592  1.0
  O  O7557  1  0.98515120  0.58834282  0.25520592  1.0
  O  O7558  1  0.98515120  0.75500949  0.25520592  1.0
  O  O7559  1  0.98515120  0.92167616  0.25520592  1.0
  O  O7560  1  0.03709700  0.13981722  0.22776164  1.0
  O  O7561  1  0.03709700  0.30648388  0.22776164  1.0
  O  O7562  1  0.03709700  0.47315055  0.22776164  1.0
  O  O7563  1  0.03709700  0.63981722  0.22776164  1.0
  O  O7564  1  0.03709700  0.80648388  0.22776164  1.0
  O  O7565  1  0.03709700  0.97315055  0.22776164  1.0
  O  O7566  1  0.12043034  0.13981722  0.22776164  1.0
  O  O7567  1  0.12043034  0.30648388  0.22776164  1.0
  O  O7568  1  0.12043034  0.47315055  0.22776164  1.0
  O  O7569  1  0.12043034  0.63981722  0.22776164  1.0
  O  O7570  1  0.12043034  0.80648388  0.22776164  1.0
  O  O7571  1  0.12043034  0.97315055  0.22776164  1.0
  O  O7572  1  0.20376367  0.13981722  0.22776164  1.0
  O  O7573  1  0.20376367  0.30648388  0.22776164  1.0
  O  O7574  1  0.20376367  0.47315055  0.22776164  1.0
  O  O7575  1  0.20376367  0.63981722  0.22776164  1.0
  O  O7576  1  0.20376367  0.80648388  0.22776164  1.0
  O  O7577  1  0.20376367  0.97315055  0.22776164  1.0
  O  O7578  1  0.28709700  0.13981722  0.22776164  1.0
  O  O7579  1  0.28709700  0.30648388  0.22776164  1.0
  O  O7580  1  0.28709700  0.47315055  0.22776164  1.0
  O  O7581  1  0.28709700  0.63981722  0.22776164  1.0
  O  O7582  1  0.28709700  0.80648388  0.22776164  1.0
  O  O7583  1  0.28709700  0.97315055  0.22776164  1.0
  O  O7584  1  0.37043034  0.13981722  0.22776164  1.0
  O  O7585  1  0.37043034  0.30648388  0.22776164  1.0
  O  O7586  1  0.37043034  0.47315055  0.22776164  1.0
  O  O7587  1  0.37043034  0.63981722  0.22776164  1.0
  O  O7588  1  0.37043034  0.80648388  0.22776164  1.0
  O  O7589  1  0.37043034  0.97315055  0.22776164  1.0
  O  O7590  1  0.45376367  0.13981722  0.22776164  1.0
  O  O7591  1  0.45376367  0.30648388  0.22776164  1.0
  O  O7592  1  0.45376367  0.47315055  0.22776164  1.0
  O  O7593  1  0.45376367  0.63981722  0.22776164  1.0
  O  O7594  1  0.45376367  0.80648388  0.22776164  1.0
  O  O7595  1  0.45376367  0.97315055  0.22776164  1.0
  O  O7596  1  0.53709700  0.13981722  0.22776164  1.0
  O  O7597  1  0.53709700  0.30648388  0.22776164  1.0
  O  O7598  1  0.53709700  0.47315055  0.22776164  1.0
  O  O7599  1  0.53709700  0.63981722  0.22776164  1.0
  O  O7600  1  0.53709700  0.80648388  0.22776164  1.0
  O  O7601  1  0.53709700  0.97315055  0.22776164  1.0
  O  O7602  1  0.62043034  0.13981722  0.22776164  1.0
  O  O7603  1  0.62043034  0.30648388  0.22776164  1.0
  O  O7604  1  0.62043034  0.47315055  0.22776164  1.0
  O  O7605  1  0.62043034  0.63981722  0.22776164  1.0
  O  O7606  1  0.62043034  0.80648388  0.22776164  1.0
  O  O7607  1  0.62043034  0.97315055  0.22776164  1.0
  O  O7608  1  0.70376367  0.13981722  0.22776164  1.0
  O  O7609  1  0.70376367  0.30648388  0.22776164  1.0
  O  O7610  1  0.70376367  0.47315055  0.22776164  1.0
  O  O7611  1  0.70376367  0.63981722  0.22776164  1.0
  O  O7612  1  0.70376367  0.80648388  0.22776164  1.0
  O  O7613  1  0.70376367  0.97315055  0.22776164  1.0
  O  O7614  1  0.78709700  0.13981722  0.22776164  1.0
  O  O7615  1  0.78709700  0.30648388  0.22776164  1.0
  O  O7616  1  0.78709700  0.47315055  0.22776164  1.0
  O  O7617  1  0.78709700  0.63981722  0.22776164  1.0
  O  O7618  1  0.78709700  0.80648388  0.22776164  1.0
  O  O7619  1  0.78709700  0.97315055  0.22776164  1.0
  O  O7620  1  0.87043034  0.13981722  0.22776164  1.0
  O  O7621  1  0.87043034  0.30648388  0.22776164  1.0
  O  O7622  1  0.87043034  0.47315055  0.22776164  1.0
  O  O7623  1  0.87043034  0.63981722  0.22776164  1.0
  O  O7624  1  0.87043034  0.80648388  0.22776164  1.0
  O  O7625  1  0.87043034  0.97315055  0.22776164  1.0
  O  O7626  1  0.95376367  0.13981722  0.22776164  1.0
  O  O7627  1  0.95376367  0.30648388  0.22776164  1.0
  O  O7628  1  0.95376367  0.47315055  0.22776164  1.0
  O  O7629  1  0.95376367  0.63981722  0.22776164  1.0
  O  O7630  1  0.95376367  0.80648388  0.22776164  1.0
  O  O7631  1  0.95376367  0.97315055  0.22776164  1.0
  O  O7632  1  0.01328748  0.12791245  0.29919021  1.0
  O  O7633  1  0.01328748  0.29457912  0.29919021  1.0
  O  O7634  1  0.01328748  0.46124579  0.29919021  1.0
  O  O7635  1  0.01328748  0.62791245  0.29919021  1.0
  O  O7636  1  0.01328748  0.79457912  0.29919021  1.0
  O  O7637  1  0.01328748  0.96124579  0.29919021  1.0
  O  O7638  1  0.09662081  0.12791245  0.29919021  1.0
  O  O7639  1  0.09662081  0.29457912  0.29919021  1.0
  O  O7640  1  0.09662081  0.46124579  0.29919021  1.0
  O  O7641  1  0.09662081  0.62791245  0.29919021  1.0
  O  O7642  1  0.09662081  0.79457912  0.29919021  1.0
  O  O7643  1  0.09662081  0.96124579  0.29919021  1.0
  O  O7644  1  0.17995415  0.12791245  0.29919021  1.0
  O  O7645  1  0.17995415  0.29457912  0.29919021  1.0
  O  O7646  1  0.17995415  0.46124579  0.29919021  1.0
  O  O7647  1  0.17995415  0.62791245  0.29919021  1.0
  O  O7648  1  0.17995415  0.79457912  0.29919021  1.0
  O  O7649  1  0.17995415  0.96124579  0.29919021  1.0
  O  O7650  1  0.26328748  0.12791245  0.29919021  1.0
  O  O7651  1  0.26328748  0.29457912  0.29919021  1.0
  O  O7652  1  0.26328748  0.46124579  0.29919021  1.0
  O  O7653  1  0.26328748  0.62791245  0.29919021  1.0
  O  O7654  1  0.26328748  0.79457912  0.29919021  1.0
  O  O7655  1  0.26328748  0.96124579  0.29919021  1.0
  O  O7656  1  0.34662081  0.12791245  0.29919021  1.0
  O  O7657  1  0.34662081  0.29457912  0.29919021  1.0
  O  O7658  1  0.34662081  0.46124579  0.29919021  1.0
  O  O7659  1  0.34662081  0.62791245  0.29919021  1.0
  O  O7660  1  0.34662081  0.79457912  0.29919021  1.0
  O  O7661  1  0.34662081  0.96124579  0.29919021  1.0
  O  O7662  1  0.42995415  0.12791245  0.29919021  1.0
  O  O7663  1  0.42995415  0.29457912  0.29919021  1.0
  O  O7664  1  0.42995415  0.46124579  0.29919021  1.0
  O  O7665  1  0.42995415  0.62791245  0.29919021  1.0
  O  O7666  1  0.42995415  0.79457912  0.29919021  1.0
  O  O7667  1  0.42995415  0.96124579  0.29919021  1.0
  O  O7668  1  0.51328748  0.12791245  0.29919021  1.0
  O  O7669  1  0.51328748  0.29457912  0.29919021  1.0
  O  O7670  1  0.51328748  0.46124579  0.29919021  1.0
  O  O7671  1  0.51328748  0.62791245  0.29919021  1.0
  O  O7672  1  0.51328748  0.79457912  0.29919021  1.0
  O  O7673  1  0.51328748  0.96124579  0.29919021  1.0
  O  O7674  1  0.59662081  0.12791245  0.29919021  1.0
  O  O7675  1  0.59662081  0.29457912  0.29919021  1.0
  O  O7676  1  0.59662081  0.46124579  0.29919021  1.0
  O  O7677  1  0.59662081  0.62791245  0.29919021  1.0
  O  O7678  1  0.59662081  0.79457912  0.29919021  1.0
  O  O7679  1  0.59662081  0.96124579  0.29919021  1.0
  O  O7680  1  0.67995415  0.12791245  0.29919021  1.0
  O  O7681  1  0.67995415  0.29457912  0.29919021  1.0
  O  O7682  1  0.67995415  0.46124579  0.29919021  1.0
  O  O7683  1  0.67995415  0.62791245  0.29919021  1.0
  O  O7684  1  0.67995415  0.79457912  0.29919021  1.0
  O  O7685  1  0.67995415  0.96124579  0.29919021  1.0
  O  O7686  1  0.76328748  0.12791245  0.29919021  1.0
  O  O7687  1  0.76328748  0.29457912  0.29919021  1.0
  O  O7688  1  0.76328748  0.46124579  0.29919021  1.0
  O  O7689  1  0.76328748  0.62791245  0.29919021  1.0
  O  O7690  1  0.76328748  0.79457912  0.29919021  1.0
  O  O7691  1  0.76328748  0.96124579  0.29919021  1.0
  O  O7692  1  0.84662081  0.12791245  0.29919021  1.0
  O  O7693  1  0.84662081  0.29457912  0.29919021  1.0
  O  O7694  1  0.84662081  0.46124579  0.29919021  1.0
  O  O7695  1  0.84662081  0.62791245  0.29919021  1.0
  O  O7696  1  0.84662081  0.79457912  0.29919021  1.0
  O  O7697  1  0.84662081  0.96124579  0.29919021  1.0
  O  O7698  1  0.92995415  0.12791245  0.29919021  1.0
  O  O7699  1  0.92995415  0.29457912  0.29919021  1.0
  O  O7700  1  0.92995415  0.46124579  0.29919021  1.0
  O  O7701  1  0.92995415  0.62791245  0.29919021  1.0
  O  O7702  1  0.92995415  0.79457912  0.29919021  1.0
  O  O7703  1  0.92995415  0.96124579  0.29919021  1.0
  O  O7704  1  0.00361658  0.09868820  0.33002099  1.0
  O  O7705  1  0.00361658  0.26535487  0.33002099  1.0
  O  O7706  1  0.00361658  0.43202154  0.33002099  1.0
  O  O7707  1  0.00361658  0.59868820  0.33002099  1.0
  O  O7708  1  0.00361658  0.76535487  0.33002099  1.0
  O  O7709  1  0.00361658  0.93202154  0.33002099  1.0
  O  O7710  1  0.08694991  0.09868820  0.33002099  1.0
  O  O7711  1  0.08694991  0.26535487  0.33002099  1.0
  O  O7712  1  0.08694991  0.43202154  0.33002099  1.0
  O  O7713  1  0.08694991  0.59868820  0.33002099  1.0
  O  O7714  1  0.08694991  0.76535487  0.33002099  1.0
  O  O7715  1  0.08694991  0.93202154  0.33002099  1.0
  O  O7716  1  0.17028325  0.09868820  0.33002099  1.0
  O  O7717  1  0.17028325  0.26535487  0.33002099  1.0
  O  O7718  1  0.17028325  0.43202154  0.33002099  1.0
  O  O7719  1  0.17028325  0.59868820  0.33002099  1.0
  O  O7720  1  0.17028325  0.76535487  0.33002099  1.0
  O  O7721  1  0.17028325  0.93202154  0.33002099  1.0
  O  O7722  1  0.25361658  0.09868820  0.33002099  1.0
  O  O7723  1  0.25361658  0.26535487  0.33002099  1.0
  O  O7724  1  0.25361658  0.43202154  0.33002099  1.0
  O  O7725  1  0.25361658  0.59868820  0.33002099  1.0
  O  O7726  1  0.25361658  0.76535487  0.33002099  1.0
  O  O7727  1  0.25361658  0.93202154  0.33002099  1.0
  O  O7728  1  0.33694991  0.09868820  0.33002099  1.0
  O  O7729  1  0.33694991  0.26535487  0.33002099  1.0
  O  O7730  1  0.33694991  0.43202154  0.33002099  1.0
  O  O7731  1  0.33694991  0.59868820  0.33002099  1.0
  O  O7732  1  0.33694991  0.76535487  0.33002099  1.0
  O  O7733  1  0.33694991  0.93202154  0.33002099  1.0
  O  O7734  1  0.42028325  0.09868820  0.33002099  1.0
  O  O7735  1  0.42028325  0.26535487  0.33002099  1.0
  O  O7736  1  0.42028325  0.43202154  0.33002099  1.0
  O  O7737  1  0.42028325  0.59868820  0.33002099  1.0
  O  O7738  1  0.42028325  0.76535487  0.33002099  1.0
  O  O7739  1  0.42028325  0.93202154  0.33002099  1.0
  O  O7740  1  0.50361658  0.09868820  0.33002099  1.0
  O  O7741  1  0.50361658  0.26535487  0.33002099  1.0
  O  O7742  1  0.50361658  0.43202154  0.33002099  1.0
  O  O7743  1  0.50361658  0.59868820  0.33002099  1.0
  O  O7744  1  0.50361658  0.76535487  0.33002099  1.0
  O  O7745  1  0.50361658  0.93202154  0.33002099  1.0
  O  O7746  1  0.58694991  0.09868820  0.33002099  1.0
  O  O7747  1  0.58694991  0.26535487  0.33002099  1.0
  O  O7748  1  0.58694991  0.43202154  0.33002099  1.0
  O  O7749  1  0.58694991  0.59868820  0.33002099  1.0
  O  O7750  1  0.58694991  0.76535487  0.33002099  1.0
  O  O7751  1  0.58694991  0.93202154  0.33002099  1.0
  O  O7752  1  0.67028325  0.09868820  0.33002099  1.0
  O  O7753  1  0.67028325  0.26535487  0.33002099  1.0
  O  O7754  1  0.67028325  0.43202154  0.33002099  1.0
  O  O7755  1  0.67028325  0.59868820  0.33002099  1.0
  O  O7756  1  0.67028325  0.76535487  0.33002099  1.0
  O  O7757  1  0.67028325  0.93202154  0.33002099  1.0
  O  O7758  1  0.75361658  0.09868820  0.33002099  1.0
  O  O7759  1  0.75361658  0.26535487  0.33002099  1.0
  O  O7760  1  0.75361658  0.43202154  0.33002099  1.0
  O  O7761  1  0.75361658  0.59868820  0.33002099  1.0
  O  O7762  1  0.75361658  0.76535487  0.33002099  1.0
  O  O7763  1  0.75361658  0.93202154  0.33002099  1.0
  O  O7764  1  0.83694991  0.09868820  0.33002099  1.0
  O  O7765  1  0.83694991  0.26535487  0.33002099  1.0
  O  O7766  1  0.83694991  0.43202154  0.33002099  1.0
  O  O7767  1  0.83694991  0.59868820  0.33002099  1.0
  O  O7768  1  0.83694991  0.76535487  0.33002099  1.0
  O  O7769  1  0.83694991  0.93202154  0.33002099  1.0
  O  O7770  1  0.92028325  0.09868820  0.33002099  1.0
  O  O7771  1  0.92028325  0.26535487  0.33002099  1.0
  O  O7772  1  0.92028325  0.43202154  0.33002099  1.0
  O  O7773  1  0.92028325  0.59868820  0.33002099  1.0
  O  O7774  1  0.92028325  0.76535487  0.33002099  1.0
  O  O7775  1  0.92028325  0.93202154  0.33002099  1.0
  O  O7776  1  0.02742611  0.11059297  0.25859241  1.0
  O  O7777  1  0.02742611  0.27725963  0.25859241  1.0
  O  O7778  1  0.02742611  0.44392630  0.25859241  1.0
  O  O7779  1  0.02742611  0.61059297  0.25859241  1.0
  O  O7780  1  0.02742611  0.77725963  0.25859241  1.0
  O  O7781  1  0.02742611  0.94392630  0.25859241  1.0
  O  O7782  1  0.11075944  0.11059297  0.25859241  1.0
  O  O7783  1  0.11075944  0.27725963  0.25859241  1.0
  O  O7784  1  0.11075944  0.44392630  0.25859241  1.0
  O  O7785  1  0.11075944  0.61059297  0.25859241  1.0
  O  O7786  1  0.11075944  0.77725963  0.25859241  1.0
  O  O7787  1  0.11075944  0.94392630  0.25859241  1.0
  O  O7788  1  0.19409277  0.11059297  0.25859241  1.0
  O  O7789  1  0.19409277  0.27725963  0.25859241  1.0
  O  O7790  1  0.19409277  0.44392630  0.25859241  1.0
  O  O7791  1  0.19409277  0.61059297  0.25859241  1.0
  O  O7792  1  0.19409277  0.77725963  0.25859241  1.0
  O  O7793  1  0.19409277  0.94392630  0.25859241  1.0
  O  O7794  1  0.27742611  0.11059297  0.25859241  1.0
  O  O7795  1  0.27742611  0.27725963  0.25859241  1.0
  O  O7796  1  0.27742611  0.44392630  0.25859241  1.0
  O  O7797  1  0.27742611  0.61059297  0.25859241  1.0
  O  O7798  1  0.27742611  0.77725963  0.25859241  1.0
  O  O7799  1  0.27742611  0.94392630  0.25859241  1.0
  O  O7800  1  0.36075944  0.11059297  0.25859241  1.0
  O  O7801  1  0.36075944  0.27725963  0.25859241  1.0
  O  O7802  1  0.36075944  0.44392630  0.25859241  1.0
  O  O7803  1  0.36075944  0.61059297  0.25859241  1.0
  O  O7804  1  0.36075944  0.77725963  0.25859241  1.0
  O  O7805  1  0.36075944  0.94392630  0.25859241  1.0
  O  O7806  1  0.44409277  0.11059297  0.25859241  1.0
  O  O7807  1  0.44409277  0.27725963  0.25859241  1.0
  O  O7808  1  0.44409277  0.44392630  0.25859241  1.0
  O  O7809  1  0.44409277  0.61059297  0.25859241  1.0
  O  O7810  1  0.44409277  0.77725963  0.25859241  1.0
  O  O7811  1  0.44409277  0.94392630  0.25859241  1.0
  O  O7812  1  0.52742611  0.11059297  0.25859241  1.0
  O  O7813  1  0.52742611  0.27725963  0.25859241  1.0
  O  O7814  1  0.52742611  0.44392630  0.25859241  1.0
  O  O7815  1  0.52742611  0.61059297  0.25859241  1.0
  O  O7816  1  0.52742611  0.77725963  0.25859241  1.0
  O  O7817  1  0.52742611  0.94392630  0.25859241  1.0
  O  O7818  1  0.61075944  0.11059297  0.25859241  1.0
  O  O7819  1  0.61075944  0.27725963  0.25859241  1.0
  O  O7820  1  0.61075944  0.44392630  0.25859241  1.0
  O  O7821  1  0.61075944  0.61059297  0.25859241  1.0
  O  O7822  1  0.61075944  0.77725963  0.25859241  1.0
  O  O7823  1  0.61075944  0.94392630  0.25859241  1.0
  O  O7824  1  0.69409277  0.11059297  0.25859241  1.0
  O  O7825  1  0.69409277  0.27725963  0.25859241  1.0
  O  O7826  1  0.69409277  0.44392630  0.25859241  1.0
  O  O7827  1  0.69409277  0.61059297  0.25859241  1.0
  O  O7828  1  0.69409277  0.77725963  0.25859241  1.0
  O  O7829  1  0.69409277  0.94392630  0.25859241  1.0
  O  O7830  1  0.77742611  0.11059297  0.25859241  1.0
  O  O7831  1  0.77742611  0.27725963  0.25859241  1.0
  O  O7832  1  0.77742611  0.44392630  0.25859241  1.0
  O  O7833  1  0.77742611  0.61059297  0.25859241  1.0
  O  O7834  1  0.77742611  0.77725963  0.25859241  1.0
  O  O7835  1  0.77742611  0.94392630  0.25859241  1.0
  O  O7836  1  0.86075944  0.11059297  0.25859241  1.0
  O  O7837  1  0.86075944  0.27725963  0.25859241  1.0
  O  O7838  1  0.86075944  0.44392630  0.25859241  1.0
  O  O7839  1  0.86075944  0.61059297  0.25859241  1.0
  O  O7840  1  0.86075944  0.77725963  0.25859241  1.0
  O  O7841  1  0.86075944  0.94392630  0.25859241  1.0
  O  O7842  1  0.94409277  0.11059297  0.25859241  1.0
  O  O7843  1  0.94409277  0.27725963  0.25859241  1.0
  O  O7844  1  0.94409277  0.44392630  0.25859241  1.0
  O  O7845  1  0.94409277  0.61059297  0.25859241  1.0
  O  O7846  1  0.94409277  0.77725963  0.25859241  1.0
  O  O7847  1  0.94409277  0.94392630  0.25859241  1.0
  O  O7848  1  0.02689126  0.01826144  0.38711389  1.0
  O  O7849  1  0.02689126  0.18492811  0.38711389  1.0
  O  O7850  1  0.02689126  0.35159478  0.38711389  1.0
  O  O7851  1  0.02689126  0.51826144  0.38711389  1.0
  O  O7852  1  0.02689126  0.68492811  0.38711389  1.0
  O  O7853  1  0.02689126  0.85159478  0.38711389  1.0
  O  O7854  1  0.11022459  0.01826144  0.38711389  1.0
  O  O7855  1  0.11022459  0.18492811  0.38711389  1.0
  O  O7856  1  0.11022459  0.35159478  0.38711389  1.0
  O  O7857  1  0.11022459  0.51826144  0.38711389  1.0
  O  O7858  1  0.11022459  0.68492811  0.38711389  1.0
  O  O7859  1  0.11022459  0.85159478  0.38711389  1.0
  O  O7860  1  0.19355792  0.01826144  0.38711389  1.0
  O  O7861  1  0.19355792  0.18492811  0.38711389  1.0
  O  O7862  1  0.19355792  0.35159478  0.38711389  1.0
  O  O7863  1  0.19355792  0.51826144  0.38711389  1.0
  O  O7864  1  0.19355792  0.68492811  0.38711389  1.0
  O  O7865  1  0.19355792  0.85159478  0.38711389  1.0
  O  O7866  1  0.27689126  0.01826144  0.38711389  1.0
  O  O7867  1  0.27689126  0.18492811  0.38711389  1.0
  O  O7868  1  0.27689126  0.35159478  0.38711389  1.0
  O  O7869  1  0.27689126  0.51826144  0.38711389  1.0
  O  O7870  1  0.27689126  0.68492811  0.38711389  1.0
  O  O7871  1  0.27689126  0.85159478  0.38711389  1.0
  O  O7872  1  0.36022459  0.01826144  0.38711389  1.0
  O  O7873  1  0.36022459  0.18492811  0.38711389  1.0
  O  O7874  1  0.36022459  0.35159478  0.38711389  1.0
  O  O7875  1  0.36022459  0.51826144  0.38711389  1.0
  O  O7876  1  0.36022459  0.68492811  0.38711389  1.0
  O  O7877  1  0.36022459  0.85159478  0.38711389  1.0
  O  O7878  1  0.44355792  0.01826144  0.38711389  1.0
  O  O7879  1  0.44355792  0.18492811  0.38711389  1.0
  O  O7880  1  0.44355792  0.35159478  0.38711389  1.0
  O  O7881  1  0.44355792  0.51826144  0.38711389  1.0
  O  O7882  1  0.44355792  0.68492811  0.38711389  1.0
  O  O7883  1  0.44355792  0.85159478  0.38711389  1.0
  O  O7884  1  0.52689126  0.01826144  0.38711389  1.0
  O  O7885  1  0.52689126  0.18492811  0.38711389  1.0
  O  O7886  1  0.52689126  0.35159478  0.38711389  1.0
  O  O7887  1  0.52689126  0.51826144  0.38711389  1.0
  O  O7888  1  0.52689126  0.68492811  0.38711389  1.0
  O  O7889  1  0.52689126  0.85159478  0.38711389  1.0
  O  O7890  1  0.61022459  0.01826144  0.38711389  1.0
  O  O7891  1  0.61022459  0.18492811  0.38711389  1.0
  O  O7892  1  0.61022459  0.35159478  0.38711389  1.0
  O  O7893  1  0.61022459  0.51826144  0.38711389  1.0
  O  O7894  1  0.61022459  0.68492811  0.38711389  1.0
  O  O7895  1  0.61022459  0.85159478  0.38711389  1.0
  O  O7896  1  0.69355792  0.01826144  0.38711389  1.0
  O  O7897  1  0.69355792  0.18492811  0.38711389  1.0
  O  O7898  1  0.69355792  0.35159478  0.38711389  1.0
  O  O7899  1  0.69355792  0.51826144  0.38711389  1.0
  O  O7900  1  0.69355792  0.68492811  0.38711389  1.0
  O  O7901  1  0.69355792  0.85159478  0.38711389  1.0
  O  O7902  1  0.77689126  0.01826144  0.38711389  1.0
  O  O7903  1  0.77689126  0.18492811  0.38711389  1.0
  O  O7904  1  0.77689126  0.35159478  0.38711389  1.0
  O  O7905  1  0.77689126  0.51826144  0.38711389  1.0
  O  O7906  1  0.77689126  0.68492811  0.38711389  1.0
  O  O7907  1  0.77689126  0.85159478  0.38711389  1.0
  O  O7908  1  0.86022459  0.01826144  0.38711389  1.0
  O  O7909  1  0.86022459  0.18492811  0.38711389  1.0
  O  O7910  1  0.86022459  0.35159478  0.38711389  1.0
  O  O7911  1  0.86022459  0.51826144  0.38711389  1.0
  O  O7912  1  0.86022459  0.68492811  0.38711389  1.0
  O  O7913  1  0.86022459  0.85159478  0.38711389  1.0
  O  O7914  1  0.94355792  0.01826144  0.38711389  1.0
  O  O7915  1  0.94355792  0.18492811  0.38711389  1.0
  O  O7916  1  0.94355792  0.35159478  0.38711389  1.0
  O  O7917  1  0.94355792  0.51826144  0.38711389  1.0
  O  O7918  1  0.94355792  0.68492811  0.38711389  1.0
  O  O7919  1  0.94355792  0.85159478  0.38711389  1.0
  O  O7920  1  0.00308173  0.00635668  0.45854246  1.0
  O  O7921  1  0.00308173  0.17302335  0.45854246  1.0
  O  O7922  1  0.00308173  0.33969001  0.45854246  1.0
  O  O7923  1  0.00308173  0.50635668  0.45854246  1.0
  O  O7924  1  0.00308173  0.67302335  0.45854246  1.0
  O  O7925  1  0.00308173  0.83969001  0.45854246  1.0
  O  O7926  1  0.08641507  0.00635668  0.45854246  1.0
  O  O7927  1  0.08641507  0.17302335  0.45854246  1.0
  O  O7928  1  0.08641507  0.33969001  0.45854246  1.0
  O  O7929  1  0.08641507  0.50635668  0.45854246  1.0
  O  O7930  1  0.08641507  0.67302335  0.45854246  1.0
  O  O7931  1  0.08641507  0.83969001  0.45854246  1.0
  O  O7932  1  0.16974840  0.00635668  0.45854246  1.0
  O  O7933  1  0.16974840  0.17302335  0.45854246  1.0
  O  O7934  1  0.16974840  0.33969001  0.45854246  1.0
  O  O7935  1  0.16974840  0.50635668  0.45854246  1.0
  O  O7936  1  0.16974840  0.67302335  0.45854246  1.0
  O  O7937  1  0.16974840  0.83969001  0.45854246  1.0
  O  O7938  1  0.25308173  0.00635668  0.45854246  1.0
  O  O7939  1  0.25308173  0.17302335  0.45854246  1.0
  O  O7940  1  0.25308173  0.33969001  0.45854246  1.0
  O  O7941  1  0.25308173  0.50635668  0.45854246  1.0
  O  O7942  1  0.25308173  0.67302335  0.45854246  1.0
  O  O7943  1  0.25308173  0.83969001  0.45854246  1.0
  O  O7944  1  0.33641507  0.00635668  0.45854246  1.0
  O  O7945  1  0.33641507  0.17302335  0.45854246  1.0
  O  O7946  1  0.33641507  0.33969001  0.45854246  1.0
  O  O7947  1  0.33641507  0.50635668  0.45854246  1.0
  O  O7948  1  0.33641507  0.67302335  0.45854246  1.0
  O  O7949  1  0.33641507  0.83969001  0.45854246  1.0
  O  O7950  1  0.41974840  0.00635668  0.45854246  1.0
  O  O7951  1  0.41974840  0.17302335  0.45854246  1.0
  O  O7952  1  0.41974840  0.33969001  0.45854246  1.0
  O  O7953  1  0.41974840  0.50635668  0.45854246  1.0
  O  O7954  1  0.41974840  0.67302335  0.45854246  1.0
  O  O7955  1  0.41974840  0.83969001  0.45854246  1.0
  O  O7956  1  0.50308173  0.00635668  0.45854246  1.0
  O  O7957  1  0.50308173  0.17302335  0.45854246  1.0
  O  O7958  1  0.50308173  0.33969001  0.45854246  1.0
  O  O7959  1  0.50308173  0.50635668  0.45854246  1.0
  O  O7960  1  0.50308173  0.67302335  0.45854246  1.0
  O  O7961  1  0.50308173  0.83969001  0.45854246  1.0
  O  O7962  1  0.58641507  0.00635668  0.45854246  1.0
  O  O7963  1  0.58641507  0.17302335  0.45854246  1.0
  O  O7964  1  0.58641507  0.33969001  0.45854246  1.0
  O  O7965  1  0.58641507  0.50635668  0.45854246  1.0
  O  O7966  1  0.58641507  0.67302335  0.45854246  1.0
  O  O7967  1  0.58641507  0.83969001  0.45854246  1.0
  O  O7968  1  0.66974840  0.00635668  0.45854246  1.0
  O  O7969  1  0.66974840  0.17302335  0.45854246  1.0
  O  O7970  1  0.66974840  0.33969001  0.45854246  1.0
  O  O7971  1  0.66974840  0.50635668  0.45854246  1.0
  O  O7972  1  0.66974840  0.67302335  0.45854246  1.0
  O  O7973  1  0.66974840  0.83969001  0.45854246  1.0
  O  O7974  1  0.75308173  0.00635668  0.45854246  1.0
  O  O7975  1  0.75308173  0.17302335  0.45854246  1.0
  O  O7976  1  0.75308173  0.33969001  0.45854246  1.0
  O  O7977  1  0.75308173  0.50635668  0.45854246  1.0
  O  O7978  1  0.75308173  0.67302335  0.45854246  1.0
  O  O7979  1  0.75308173  0.83969001  0.45854246  1.0
  O  O7980  1  0.83641507  0.00635668  0.45854246  1.0
  O  O7981  1  0.83641507  0.17302335  0.45854246  1.0
  O  O7982  1  0.83641507  0.33969001  0.45854246  1.0
  O  O7983  1  0.83641507  0.50635668  0.45854246  1.0
  O  O7984  1  0.83641507  0.67302335  0.45854246  1.0
  O  O7985  1  0.83641507  0.83969001  0.45854246  1.0
  O  O7986  1  0.91974840  0.00635668  0.45854246  1.0
  O  O7987  1  0.91974840  0.17302335  0.45854246  1.0
  O  O7988  1  0.91974840  0.33969001  0.45854246  1.0
  O  O7989  1  0.91974840  0.50635668  0.45854246  1.0
  O  O7990  1  0.91974840  0.67302335  0.45854246  1.0
  O  O7991  1  0.91974840  0.83969001  0.45854246  1.0
  O  O7992  1  0.03119048  0.14010580  0.37636722  1.0
  O  O7993  1  0.03119048  0.30677247  0.37636722  1.0
  O  O7994  1  0.03119048  0.47343913  0.37636722  1.0
  O  O7995  1  0.03119048  0.64010580  0.37636722  1.0
  O  O7996  1  0.03119048  0.80677247  0.37636722  1.0
  O  O7997  1  0.03119048  0.97343913  0.37636722  1.0
  O  O7998  1  0.11452382  0.14010580  0.37636722  1.0
  O  O7999  1  0.11452382  0.30677247  0.37636722  1.0
  O  O8000  1  0.11452382  0.47343913  0.37636722  1.0
  O  O8001  1  0.11452382  0.64010580  0.37636722  1.0
  O  O8002  1  0.11452382  0.80677247  0.37636722  1.0
  O  O8003  1  0.11452382  0.97343913  0.37636722  1.0
  O  O8004  1  0.19785715  0.14010580  0.37636722  1.0
  O  O8005  1  0.19785715  0.30677247  0.37636722  1.0
  O  O8006  1  0.19785715  0.47343913  0.37636722  1.0
  O  O8007  1  0.19785715  0.64010580  0.37636722  1.0
  O  O8008  1  0.19785715  0.80677247  0.37636722  1.0
  O  O8009  1  0.19785715  0.97343913  0.37636722  1.0
  O  O8010  1  0.28119048  0.14010580  0.37636722  1.0
  O  O8011  1  0.28119048  0.30677247  0.37636722  1.0
  O  O8012  1  0.28119048  0.47343913  0.37636722  1.0
  O  O8013  1  0.28119048  0.64010580  0.37636722  1.0
  O  O8014  1  0.28119048  0.80677247  0.37636722  1.0
  O  O8015  1  0.28119048  0.97343913  0.37636722  1.0
  O  O8016  1  0.36452382  0.14010580  0.37636722  1.0
  O  O8017  1  0.36452382  0.30677247  0.37636722  1.0
  O  O8018  1  0.36452382  0.47343913  0.37636722  1.0
  O  O8019  1  0.36452382  0.64010580  0.37636722  1.0
  O  O8020  1  0.36452382  0.80677247  0.37636722  1.0
  O  O8021  1  0.36452382  0.97343913  0.37636722  1.0
  O  O8022  1  0.44785715  0.14010580  0.37636722  1.0
  O  O8023  1  0.44785715  0.30677247  0.37636722  1.0
  O  O8024  1  0.44785715  0.47343913  0.37636722  1.0
  O  O8025  1  0.44785715  0.64010580  0.37636722  1.0
  O  O8026  1  0.44785715  0.80677247  0.37636722  1.0
  O  O8027  1  0.44785715  0.97343913  0.37636722  1.0
  O  O8028  1  0.53119048  0.14010580  0.37636722  1.0
  O  O8029  1  0.53119048  0.30677247  0.37636722  1.0
  O  O8030  1  0.53119048  0.47343913  0.37636722  1.0
  O  O8031  1  0.53119048  0.64010580  0.37636722  1.0
  O  O8032  1  0.53119048  0.80677247  0.37636722  1.0
  O  O8033  1  0.53119048  0.97343913  0.37636722  1.0
  O  O8034  1  0.61452382  0.14010580  0.37636722  1.0
  O  O8035  1  0.61452382  0.30677247  0.37636722  1.0
  O  O8036  1  0.61452382  0.47343913  0.37636722  1.0
  O  O8037  1  0.61452382  0.64010580  0.37636722  1.0
  O  O8038  1  0.61452382  0.80677247  0.37636722  1.0
  O  O8039  1  0.61452382  0.97343913  0.37636722  1.0
  O  O8040  1  0.69785715  0.14010580  0.37636722  1.0
  O  O8041  1  0.69785715  0.30677247  0.37636722  1.0
  O  O8042  1  0.69785715  0.47343913  0.37636722  1.0
  O  O8043  1  0.69785715  0.64010580  0.37636722  1.0
  O  O8044  1  0.69785715  0.80677247  0.37636722  1.0
  O  O8045  1  0.69785715  0.97343913  0.37636722  1.0
  O  O8046  1  0.78119048  0.14010580  0.37636722  1.0
  O  O8047  1  0.78119048  0.30677247  0.37636722  1.0
  O  O8048  1  0.78119048  0.47343913  0.37636722  1.0
  O  O8049  1  0.78119048  0.64010580  0.37636722  1.0
  O  O8050  1  0.78119048  0.80677247  0.37636722  1.0
  O  O8051  1  0.78119048  0.97343913  0.37636722  1.0
  O  O8052  1  0.86452382  0.14010580  0.37636722  1.0
  O  O8053  1  0.86452382  0.30677247  0.37636722  1.0
  O  O8054  1  0.86452382  0.47343913  0.37636722  1.0
  O  O8055  1  0.86452382  0.64010580  0.37636722  1.0
  O  O8056  1  0.86452382  0.80677247  0.37636722  1.0
  O  O8057  1  0.86452382  0.97343913  0.37636722  1.0
  O  O8058  1  0.94785715  0.14010580  0.37636722  1.0
  O  O8059  1  0.94785715  0.30677247  0.37636722  1.0
  O  O8060  1  0.94785715  0.47343913  0.37636722  1.0
  O  O8061  1  0.94785715  0.64010580  0.37636722  1.0
  O  O8062  1  0.94785715  0.80677247  0.37636722  1.0
  O  O8063  1  0.94785715  0.97343913  0.37636722  1.0
  O  O8064  1  0.00738096  0.12820104  0.44779579  1.0
  O  O8065  1  0.00738096  0.29486771  0.44779579  1.0
  O  O8066  1  0.00738096  0.46153437  0.44779579  1.0
  O  O8067  1  0.00738096  0.62820104  0.44779579  1.0
  O  O8068  1  0.00738096  0.79486771  0.44779579  1.0
  O  O8069  1  0.00738096  0.96153437  0.44779579  1.0
  O  O8070  1  0.09071429  0.12820104  0.44779579  1.0
  O  O8071  1  0.09071429  0.29486771  0.44779579  1.0
  O  O8072  1  0.09071429  0.46153437  0.44779579  1.0
  O  O8073  1  0.09071429  0.62820104  0.44779579  1.0
  O  O8074  1  0.09071429  0.79486771  0.44779579  1.0
  O  O8075  1  0.09071429  0.96153437  0.44779579  1.0
  O  O8076  1  0.17404763  0.12820104  0.44779579  1.0
  O  O8077  1  0.17404763  0.29486771  0.44779579  1.0
  O  O8078  1  0.17404763  0.46153437  0.44779579  1.0
  O  O8079  1  0.17404763  0.62820104  0.44779579  1.0
  O  O8080  1  0.17404763  0.79486771  0.44779579  1.0
  O  O8081  1  0.17404763  0.96153437  0.44779579  1.0
  O  O8082  1  0.25738096  0.12820104  0.44779579  1.0
  O  O8083  1  0.25738096  0.29486771  0.44779579  1.0
  O  O8084  1  0.25738096  0.46153437  0.44779579  1.0
  O  O8085  1  0.25738096  0.62820104  0.44779579  1.0
  O  O8086  1  0.25738096  0.79486771  0.44779579  1.0
  O  O8087  1  0.25738096  0.96153437  0.44779579  1.0
  O  O8088  1  0.34071429  0.12820104  0.44779579  1.0
  O  O8089  1  0.34071429  0.29486771  0.44779579  1.0
  O  O8090  1  0.34071429  0.46153437  0.44779579  1.0
  O  O8091  1  0.34071429  0.62820104  0.44779579  1.0
  O  O8092  1  0.34071429  0.79486771  0.44779579  1.0
  O  O8093  1  0.34071429  0.96153437  0.44779579  1.0
  O  O8094  1  0.42404763  0.12820104  0.44779579  1.0
  O  O8095  1  0.42404763  0.29486771  0.44779579  1.0
  O  O8096  1  0.42404763  0.46153437  0.44779579  1.0
  O  O8097  1  0.42404763  0.62820104  0.44779579  1.0
  O  O8098  1  0.42404763  0.79486771  0.44779579  1.0
  O  O8099  1  0.42404763  0.96153437  0.44779579  1.0
  O  O8100  1  0.50738096  0.12820104  0.44779579  1.0
  O  O8101  1  0.50738096  0.29486771  0.44779579  1.0
  O  O8102  1  0.50738096  0.46153437  0.44779579  1.0
  O  O8103  1  0.50738096  0.62820104  0.44779579  1.0
  O  O8104  1  0.50738096  0.79486771  0.44779579  1.0
  O  O8105  1  0.50738096  0.96153437  0.44779579  1.0
  O  O8106  1  0.59071429  0.12820104  0.44779579  1.0
  O  O8107  1  0.59071429  0.29486771  0.44779579  1.0
  O  O8108  1  0.59071429  0.46153437  0.44779579  1.0
  O  O8109  1  0.59071429  0.62820104  0.44779579  1.0
  O  O8110  1  0.59071429  0.79486771  0.44779579  1.0
  O  O8111  1  0.59071429  0.96153437  0.44779579  1.0
  O  O8112  1  0.67404763  0.12820104  0.44779579  1.0
  O  O8113  1  0.67404763  0.29486771  0.44779579  1.0
  O  O8114  1  0.67404763  0.46153437  0.44779579  1.0
  O  O8115  1  0.67404763  0.62820104  0.44779579  1.0
  O  O8116  1  0.67404763  0.79486771  0.44779579  1.0
  O  O8117  1  0.67404763  0.96153437  0.44779579  1.0
  O  O8118  1  0.75738096  0.12820104  0.44779579  1.0
  O  O8119  1  0.75738096  0.29486771  0.44779579  1.0
  O  O8120  1  0.75738096  0.46153437  0.44779579  1.0
  O  O8121  1  0.75738096  0.62820104  0.44779579  1.0
  O  O8122  1  0.75738096  0.79486771  0.44779579  1.0
  O  O8123  1  0.75738096  0.96153437  0.44779579  1.0
  O  O8124  1  0.84071429  0.12820104  0.44779579  1.0
  O  O8125  1  0.84071429  0.29486771  0.44779579  1.0
  O  O8126  1  0.84071429  0.46153437  0.44779579  1.0
  O  O8127  1  0.84071429  0.62820104  0.44779579  1.0
  O  O8128  1  0.84071429  0.79486771  0.44779579  1.0
  O  O8129  1  0.84071429  0.96153437  0.44779579  1.0
  O  O8130  1  0.92404763  0.12820104  0.44779579  1.0
  O  O8131  1  0.92404763  0.29486771  0.44779579  1.0
  O  O8132  1  0.92404763  0.46153437  0.44779579  1.0
  O  O8133  1  0.92404763  0.62820104  0.44779579  1.0
  O  O8134  1  0.92404763  0.79486771  0.44779579  1.0
  O  O8135  1  0.92404763  0.96153437  0.44779579  1.0
  O  O8136  1  0.06739581  0.04088435  0.39207368  1.0
  O  O8137  1  0.06739581  0.20755102  0.39207368  1.0
  O  O8138  1  0.06739581  0.37421769  0.39207368  1.0
  O  O8139  1  0.06739581  0.54088435  0.39207368  1.0
  O  O8140  1  0.06739581  0.70755102  0.39207368  1.0
  O  O8141  1  0.06739581  0.87421769  0.39207368  1.0
  O  O8142  1  0.15072914  0.04088435  0.39207368  1.0
  O  O8143  1  0.15072914  0.20755102  0.39207368  1.0
  O  O8144  1  0.15072914  0.37421769  0.39207368  1.0
  O  O8145  1  0.15072914  0.54088435  0.39207368  1.0
  O  O8146  1  0.15072914  0.70755102  0.39207368  1.0
  O  O8147  1  0.15072914  0.87421769  0.39207368  1.0
  O  O8148  1  0.23406248  0.04088435  0.39207368  1.0
  O  O8149  1  0.23406248  0.20755102  0.39207368  1.0
  O  O8150  1  0.23406248  0.37421769  0.39207368  1.0
  O  O8151  1  0.23406248  0.54088435  0.39207368  1.0
  O  O8152  1  0.23406248  0.70755102  0.39207368  1.0
  O  O8153  1  0.23406248  0.87421769  0.39207368  1.0
  O  O8154  1  0.31739581  0.04088435  0.39207368  1.0
  O  O8155  1  0.31739581  0.20755102  0.39207368  1.0
  O  O8156  1  0.31739581  0.37421769  0.39207368  1.0
  O  O8157  1  0.31739581  0.54088435  0.39207368  1.0
  O  O8158  1  0.31739581  0.70755102  0.39207368  1.0
  O  O8159  1  0.31739581  0.87421769  0.39207368  1.0
  O  O8160  1  0.40072914  0.04088435  0.39207368  1.0
  O  O8161  1  0.40072914  0.20755102  0.39207368  1.0
  O  O8162  1  0.40072914  0.37421769  0.39207368  1.0
  O  O8163  1  0.40072914  0.54088435  0.39207368  1.0
  O  O8164  1  0.40072914  0.70755102  0.39207368  1.0
  O  O8165  1  0.40072914  0.87421769  0.39207368  1.0
  O  O8166  1  0.48406248  0.04088435  0.39207368  1.0
  O  O8167  1  0.48406248  0.20755102  0.39207368  1.0
  O  O8168  1  0.48406248  0.37421769  0.39207368  1.0
  O  O8169  1  0.48406248  0.54088435  0.39207368  1.0
  O  O8170  1  0.48406248  0.70755102  0.39207368  1.0
  O  O8171  1  0.48406248  0.87421769  0.39207368  1.0
  O  O8172  1  0.56739581  0.04088435  0.39207368  1.0
  O  O8173  1  0.56739581  0.20755102  0.39207368  1.0
  O  O8174  1  0.56739581  0.37421769  0.39207368  1.0
  O  O8175  1  0.56739581  0.54088435  0.39207368  1.0
  O  O8176  1  0.56739581  0.70755102  0.39207368  1.0
  O  O8177  1  0.56739581  0.87421769  0.39207368  1.0
  O  O8178  1  0.65072914  0.04088435  0.39207368  1.0
  O  O8179  1  0.65072914  0.20755102  0.39207368  1.0
  O  O8180  1  0.65072914  0.37421769  0.39207368  1.0
  O  O8181  1  0.65072914  0.54088435  0.39207368  1.0
  O  O8182  1  0.65072914  0.70755102  0.39207368  1.0
  O  O8183  1  0.65072914  0.87421769  0.39207368  1.0
  O  O8184  1  0.73406248  0.04088435  0.39207368  1.0
  O  O8185  1  0.73406248  0.20755102  0.39207368  1.0
  O  O8186  1  0.73406248  0.37421769  0.39207368  1.0
  O  O8187  1  0.73406248  0.54088435  0.39207368  1.0
  O  O8188  1  0.73406248  0.70755102  0.39207368  1.0
  O  O8189  1  0.73406248  0.87421769  0.39207368  1.0
  O  O8190  1  0.81739581  0.04088435  0.39207368  1.0
  O  O8191  1  0.81739581  0.20755102  0.39207368  1.0
  O  O8192  1  0.81739581  0.37421769  0.39207368  1.0
  O  O8193  1  0.81739581  0.54088435  0.39207368  1.0
  O  O8194  1  0.81739581  0.70755102  0.39207368  1.0
  O  O8195  1  0.81739581  0.87421769  0.39207368  1.0
  O  O8196  1  0.90072914  0.04088435  0.39207368  1.0
  O  O8197  1  0.90072914  0.20755102  0.39207368  1.0
  O  O8198  1  0.90072914  0.37421769  0.39207368  1.0
  O  O8199  1  0.90072914  0.54088435  0.39207368  1.0
  O  O8200  1  0.90072914  0.70755102  0.39207368  1.0
  O  O8201  1  0.90072914  0.87421769  0.39207368  1.0
  O  O8202  1  0.98406248  0.04088435  0.39207368  1.0
  O  O8203  1  0.98406248  0.20755102  0.39207368  1.0
  O  O8204  1  0.98406248  0.37421769  0.39207368  1.0
  O  O8205  1  0.98406248  0.54088435  0.39207368  1.0
  O  O8206  1  0.98406248  0.70755102  0.39207368  1.0
  O  O8207  1  0.98406248  0.87421769  0.39207368  1.0
  O  O8208  1  0.04358629  0.02897959  0.46350225  1.0
  O  O8209  1  0.04358629  0.19564626  0.46350225  1.0
  O  O8210  1  0.04358629  0.36231292  0.46350225  1.0
  O  O8211  1  0.04358629  0.52897959  0.46350225  1.0
  O  O8212  1  0.04358629  0.69564626  0.46350225  1.0
  O  O8213  1  0.04358629  0.86231292  0.46350225  1.0
  O  O8214  1  0.12691962  0.02897959  0.46350225  1.0
  O  O8215  1  0.12691962  0.19564626  0.46350225  1.0
  O  O8216  1  0.12691962  0.36231292  0.46350225  1.0
  O  O8217  1  0.12691962  0.52897959  0.46350225  1.0
  O  O8218  1  0.12691962  0.69564626  0.46350225  1.0
  O  O8219  1  0.12691962  0.86231292  0.46350225  1.0
  O  O8220  1  0.21025295  0.02897959  0.46350225  1.0
  O  O8221  1  0.21025295  0.19564626  0.46350225  1.0
  O  O8222  1  0.21025295  0.36231292  0.46350225  1.0
  O  O8223  1  0.21025295  0.52897959  0.46350225  1.0
  O  O8224  1  0.21025295  0.69564626  0.46350225  1.0
  O  O8225  1  0.21025295  0.86231292  0.46350225  1.0
  O  O8226  1  0.29358629  0.02897959  0.46350225  1.0
  O  O8227  1  0.29358629  0.19564626  0.46350225  1.0
  O  O8228  1  0.29358629  0.36231292  0.46350225  1.0
  O  O8229  1  0.29358629  0.52897959  0.46350225  1.0
  O  O8230  1  0.29358629  0.69564626  0.46350225  1.0
  O  O8231  1  0.29358629  0.86231292  0.46350225  1.0
  O  O8232  1  0.37691962  0.02897959  0.46350225  1.0
  O  O8233  1  0.37691962  0.19564626  0.46350225  1.0
  O  O8234  1  0.37691962  0.36231292  0.46350225  1.0
  O  O8235  1  0.37691962  0.52897959  0.46350225  1.0
  O  O8236  1  0.37691962  0.69564626  0.46350225  1.0
  O  O8237  1  0.37691962  0.86231292  0.46350225  1.0
  O  O8238  1  0.46025295  0.02897959  0.46350225  1.0
  O  O8239  1  0.46025295  0.19564626  0.46350225  1.0
  O  O8240  1  0.46025295  0.36231292  0.46350225  1.0
  O  O8241  1  0.46025295  0.52897959  0.46350225  1.0
  O  O8242  1  0.46025295  0.69564626  0.46350225  1.0
  O  O8243  1  0.46025295  0.86231292  0.46350225  1.0
  O  O8244  1  0.54358629  0.02897959  0.46350225  1.0
  O  O8245  1  0.54358629  0.19564626  0.46350225  1.0
  O  O8246  1  0.54358629  0.36231292  0.46350225  1.0
  O  O8247  1  0.54358629  0.52897959  0.46350225  1.0
  O  O8248  1  0.54358629  0.69564626  0.46350225  1.0
  O  O8249  1  0.54358629  0.86231292  0.46350225  1.0
  O  O8250  1  0.62691962  0.02897959  0.46350225  1.0
  O  O8251  1  0.62691962  0.19564626  0.46350225  1.0
  O  O8252  1  0.62691962  0.36231292  0.46350225  1.0
  O  O8253  1  0.62691962  0.52897959  0.46350225  1.0
  O  O8254  1  0.62691962  0.69564626  0.46350225  1.0
  O  O8255  1  0.62691962  0.86231292  0.46350225  1.0
  O  O8256  1  0.71025295  0.02897959  0.46350225  1.0
  O  O8257  1  0.71025295  0.19564626  0.46350225  1.0
  O  O8258  1  0.71025295  0.36231292  0.46350225  1.0
  O  O8259  1  0.71025295  0.52897959  0.46350225  1.0
  O  O8260  1  0.71025295  0.69564626  0.46350225  1.0
  O  O8261  1  0.71025295  0.86231292  0.46350225  1.0
  O  O8262  1  0.79358629  0.02897959  0.46350225  1.0
  O  O8263  1  0.79358629  0.19564626  0.46350225  1.0
  O  O8264  1  0.79358629  0.36231292  0.46350225  1.0
  O  O8265  1  0.79358629  0.52897959  0.46350225  1.0
  O  O8266  1  0.79358629  0.69564626  0.46350225  1.0
  O  O8267  1  0.79358629  0.86231292  0.46350225  1.0
  O  O8268  1  0.87691962  0.02897959  0.46350225  1.0
  O  O8269  1  0.87691962  0.19564626  0.46350225  1.0
  O  O8270  1  0.87691962  0.36231292  0.46350225  1.0
  O  O8271  1  0.87691962  0.52897959  0.46350225  1.0
  O  O8272  1  0.87691962  0.69564626  0.46350225  1.0
  O  O8273  1  0.87691962  0.86231292  0.46350225  1.0
  O  O8274  1  0.96025295  0.02897959  0.46350225  1.0
  O  O8275  1  0.96025295  0.19564626  0.46350225  1.0
  O  O8276  1  0.96025295  0.36231292  0.46350225  1.0
  O  O8277  1  0.96025295  0.52897959  0.46350225  1.0
  O  O8278  1  0.96025295  0.69564626  0.46350225  1.0
  O  O8279  1  0.96025295  0.86231292  0.46350225  1.0
  O  O8280  1  0.07022852  0.16259152  0.38267756  1.0
  O  O8281  1  0.07022852  0.32925818  0.38267756  1.0
  O  O8282  1  0.07022852  0.49592485  0.38267756  1.0
  O  O8283  1  0.07022852  0.66259152  0.38267756  1.0
  O  O8284  1  0.07022852  0.82925818  0.38267756  1.0
  O  O8285  1  0.07022852  0.99592485  0.38267756  1.0
  O  O8286  1  0.15356185  0.16259152  0.38267756  1.0
  O  O8287  1  0.15356185  0.32925818  0.38267756  1.0
  O  O8288  1  0.15356185  0.49592485  0.38267756  1.0
  O  O8289  1  0.15356185  0.66259152  0.38267756  1.0
  O  O8290  1  0.15356185  0.82925818  0.38267756  1.0
  O  O8291  1  0.15356185  0.99592485  0.38267756  1.0
  O  O8292  1  0.23689519  0.16259152  0.38267756  1.0
  O  O8293  1  0.23689519  0.32925818  0.38267756  1.0
  O  O8294  1  0.23689519  0.49592485  0.38267756  1.0
  O  O8295  1  0.23689519  0.66259152  0.38267756  1.0
  O  O8296  1  0.23689519  0.82925818  0.38267756  1.0
  O  O8297  1  0.23689519  0.99592485  0.38267756  1.0
  O  O8298  1  0.32022852  0.16259152  0.38267756  1.0
  O  O8299  1  0.32022852  0.32925818  0.38267756  1.0
  O  O8300  1  0.32022852  0.49592485  0.38267756  1.0
  O  O8301  1  0.32022852  0.66259152  0.38267756  1.0
  O  O8302  1  0.32022852  0.82925818  0.38267756  1.0
  O  O8303  1  0.32022852  0.99592485  0.38267756  1.0
  O  O8304  1  0.40356185  0.16259152  0.38267756  1.0
  O  O8305  1  0.40356185  0.32925818  0.38267756  1.0
  O  O8306  1  0.40356185  0.49592485  0.38267756  1.0
  O  O8307  1  0.40356185  0.66259152  0.38267756  1.0
  O  O8308  1  0.40356185  0.82925818  0.38267756  1.0
  O  O8309  1  0.40356185  0.99592485  0.38267756  1.0
  O  O8310  1  0.48689519  0.16259152  0.38267756  1.0
  O  O8311  1  0.48689519  0.32925818  0.38267756  1.0
  O  O8312  1  0.48689519  0.49592485  0.38267756  1.0
  O  O8313  1  0.48689519  0.66259152  0.38267756  1.0
  O  O8314  1  0.48689519  0.82925818  0.38267756  1.0
  O  O8315  1  0.48689519  0.99592485  0.38267756  1.0
  O  O8316  1  0.57022852  0.16259152  0.38267756  1.0
  O  O8317  1  0.57022852  0.32925818  0.38267756  1.0
  O  O8318  1  0.57022852  0.49592485  0.38267756  1.0
  O  O8319  1  0.57022852  0.66259152  0.38267756  1.0
  O  O8320  1  0.57022852  0.82925818  0.38267756  1.0
  O  O8321  1  0.57022852  0.99592485  0.38267756  1.0
  O  O8322  1  0.65356185  0.16259152  0.38267756  1.0
  O  O8323  1  0.65356185  0.32925818  0.38267756  1.0
  O  O8324  1  0.65356185  0.49592485  0.38267756  1.0
  O  O8325  1  0.65356185  0.66259152  0.38267756  1.0
  O  O8326  1  0.65356185  0.82925818  0.38267756  1.0
  O  O8327  1  0.65356185  0.99592485  0.38267756  1.0
  O  O8328  1  0.73689519  0.16259152  0.38267756  1.0
  O  O8329  1  0.73689519  0.32925818  0.38267756  1.0
  O  O8330  1  0.73689519  0.49592485  0.38267756  1.0
  O  O8331  1  0.73689519  0.66259152  0.38267756  1.0
  O  O8332  1  0.73689519  0.82925818  0.38267756  1.0
  O  O8333  1  0.73689519  0.99592485  0.38267756  1.0
  O  O8334  1  0.82022852  0.16259152  0.38267756  1.0
  O  O8335  1  0.82022852  0.32925818  0.38267756  1.0
  O  O8336  1  0.82022852  0.49592485  0.38267756  1.0
  O  O8337  1  0.82022852  0.66259152  0.38267756  1.0
  O  O8338  1  0.82022852  0.82925818  0.38267756  1.0
  O  O8339  1  0.82022852  0.99592485  0.38267756  1.0
  O  O8340  1  0.90356185  0.16259152  0.38267756  1.0
  O  O8341  1  0.90356185  0.32925818  0.38267756  1.0
  O  O8342  1  0.90356185  0.49592485  0.38267756  1.0
  O  O8343  1  0.90356185  0.66259152  0.38267756  1.0
  O  O8344  1  0.90356185  0.82925818  0.38267756  1.0
  O  O8345  1  0.90356185  0.99592485  0.38267756  1.0
  O  O8346  1  0.98689519  0.16259152  0.38267756  1.0
  O  O8347  1  0.98689519  0.32925818  0.38267756  1.0
  O  O8348  1  0.98689519  0.49592485  0.38267756  1.0
  O  O8349  1  0.98689519  0.66259152  0.38267756  1.0
  O  O8350  1  0.98689519  0.82925818  0.38267756  1.0
  O  O8351  1  0.98689519  0.99592485  0.38267756  1.0
  O  O8352  1  0.04641900  0.15068675  0.45410613  1.0
  O  O8353  1  0.04641900  0.31735342  0.45410613  1.0
  O  O8354  1  0.04641900  0.48402009  0.45410613  1.0
  O  O8355  1  0.04641900  0.65068675  0.45410613  1.0
  O  O8356  1  0.04641900  0.81735342  0.45410613  1.0
  O  O8357  1  0.04641900  0.98402009  0.45410613  1.0
  O  O8358  1  0.12975233  0.15068675  0.45410613  1.0
  O  O8359  1  0.12975233  0.31735342  0.45410613  1.0
  O  O8360  1  0.12975233  0.48402009  0.45410613  1.0
  O  O8361  1  0.12975233  0.65068675  0.45410613  1.0
  O  O8362  1  0.12975233  0.81735342  0.45410613  1.0
  O  O8363  1  0.12975233  0.98402009  0.45410613  1.0
  O  O8364  1  0.21308566  0.15068675  0.45410613  1.0
  O  O8365  1  0.21308566  0.31735342  0.45410613  1.0
  O  O8366  1  0.21308566  0.48402009  0.45410613  1.0
  O  O8367  1  0.21308566  0.65068675  0.45410613  1.0
  O  O8368  1  0.21308566  0.81735342  0.45410613  1.0
  O  O8369  1  0.21308566  0.98402009  0.45410613  1.0
  O  O8370  1  0.29641900  0.15068675  0.45410613  1.0
  O  O8371  1  0.29641900  0.31735342  0.45410613  1.0
  O  O8372  1  0.29641900  0.48402009  0.45410613  1.0
  O  O8373  1  0.29641900  0.65068675  0.45410613  1.0
  O  O8374  1  0.29641900  0.81735342  0.45410613  1.0
  O  O8375  1  0.29641900  0.98402009  0.45410613  1.0
  O  O8376  1  0.37975233  0.15068675  0.45410613  1.0
  O  O8377  1  0.37975233  0.31735342  0.45410613  1.0
  O  O8378  1  0.37975233  0.48402009  0.45410613  1.0
  O  O8379  1  0.37975233  0.65068675  0.45410613  1.0
  O  O8380  1  0.37975233  0.81735342  0.45410613  1.0
  O  O8381  1  0.37975233  0.98402009  0.45410613  1.0
  O  O8382  1  0.46308566  0.15068675  0.45410613  1.0
  O  O8383  1  0.46308566  0.31735342  0.45410613  1.0
  O  O8384  1  0.46308566  0.48402009  0.45410613  1.0
  O  O8385  1  0.46308566  0.65068675  0.45410613  1.0
  O  O8386  1  0.46308566  0.81735342  0.45410613  1.0
  O  O8387  1  0.46308566  0.98402009  0.45410613  1.0
  O  O8388  1  0.54641900  0.15068675  0.45410613  1.0
  O  O8389  1  0.54641900  0.31735342  0.45410613  1.0
  O  O8390  1  0.54641900  0.48402009  0.45410613  1.0
  O  O8391  1  0.54641900  0.65068675  0.45410613  1.0
  O  O8392  1  0.54641900  0.81735342  0.45410613  1.0
  O  O8393  1  0.54641900  0.98402009  0.45410613  1.0
  O  O8394  1  0.62975233  0.15068675  0.45410613  1.0
  O  O8395  1  0.62975233  0.31735342  0.45410613  1.0
  O  O8396  1  0.62975233  0.48402009  0.45410613  1.0
  O  O8397  1  0.62975233  0.65068675  0.45410613  1.0
  O  O8398  1  0.62975233  0.81735342  0.45410613  1.0
  O  O8399  1  0.62975233  0.98402009  0.45410613  1.0
  O  O8400  1  0.71308566  0.15068675  0.45410613  1.0
  O  O8401  1  0.71308566  0.31735342  0.45410613  1.0
  O  O8402  1  0.71308566  0.48402009  0.45410613  1.0
  O  O8403  1  0.71308566  0.65068675  0.45410613  1.0
  O  O8404  1  0.71308566  0.81735342  0.45410613  1.0
  O  O8405  1  0.71308566  0.98402009  0.45410613  1.0
  O  O8406  1  0.79641900  0.15068675  0.45410613  1.0
  O  O8407  1  0.79641900  0.31735342  0.45410613  1.0
  O  O8408  1  0.79641900  0.48402009  0.45410613  1.0
  O  O8409  1  0.79641900  0.65068675  0.45410613  1.0
  O  O8410  1  0.79641900  0.81735342  0.45410613  1.0
  O  O8411  1  0.79641900  0.98402009  0.45410613  1.0
  O  O8412  1  0.87975233  0.15068675  0.45410613  1.0
  O  O8413  1  0.87975233  0.31735342  0.45410613  1.0
  O  O8414  1  0.87975233  0.48402009  0.45410613  1.0
  O  O8415  1  0.87975233  0.65068675  0.45410613  1.0
  O  O8416  1  0.87975233  0.81735342  0.45410613  1.0
  O  O8417  1  0.87975233  0.98402009  0.45410613  1.0
  O  O8418  1  0.96308566  0.15068675  0.45410613  1.0
  O  O8419  1  0.96308566  0.31735342  0.45410613  1.0
  O  O8420  1  0.96308566  0.48402009  0.45410613  1.0
  O  O8421  1  0.96308566  0.65068675  0.45410613  1.0
  O  O8422  1  0.96308566  0.81735342  0.45410613  1.0
  O  O8423  1  0.96308566  0.98402009  0.45410613  1.0
  O  O8424  1  0.07566159  0.14545683  0.48937690  1.0
  O  O8425  1  0.07566159  0.31212349  0.48937690  1.0
  O  O8426  1  0.07566159  0.47879016  0.48937690  1.0
  O  O8427  1  0.07566159  0.64545683  0.48937690  1.0
  O  O8428  1  0.07566159  0.81212349  0.48937690  1.0
  O  O8429  1  0.07566159  0.97879016  0.48937690  1.0
  O  O8430  1  0.15899492  0.14545683  0.48937690  1.0
  O  O8431  1  0.15899492  0.31212349  0.48937690  1.0
  O  O8432  1  0.15899492  0.47879016  0.48937690  1.0
  O  O8433  1  0.15899492  0.64545683  0.48937690  1.0
  O  O8434  1  0.15899492  0.81212349  0.48937690  1.0
  O  O8435  1  0.15899492  0.97879016  0.48937690  1.0
  O  O8436  1  0.24232826  0.14545683  0.48937690  1.0
  O  O8437  1  0.24232826  0.31212349  0.48937690  1.0
  O  O8438  1  0.24232826  0.47879016  0.48937690  1.0
  O  O8439  1  0.24232826  0.64545683  0.48937690  1.0
  O  O8440  1  0.24232826  0.81212349  0.48937690  1.0
  O  O8441  1  0.24232826  0.97879016  0.48937690  1.0
  O  O8442  1  0.32566159  0.14545683  0.48937690  1.0
  O  O8443  1  0.32566159  0.31212349  0.48937690  1.0
  O  O8444  1  0.32566159  0.47879016  0.48937690  1.0
  O  O8445  1  0.32566159  0.64545683  0.48937690  1.0
  O  O8446  1  0.32566159  0.81212349  0.48937690  1.0
  O  O8447  1  0.32566159  0.97879016  0.48937690  1.0
  O  O8448  1  0.40899492  0.14545683  0.48937690  1.0
  O  O8449  1  0.40899492  0.31212349  0.48937690  1.0
  O  O8450  1  0.40899492  0.47879016  0.48937690  1.0
  O  O8451  1  0.40899492  0.64545683  0.48937690  1.0
  O  O8452  1  0.40899492  0.81212349  0.48937690  1.0
  O  O8453  1  0.40899492  0.97879016  0.48937690  1.0
  O  O8454  1  0.49232826  0.14545683  0.48937690  1.0
  O  O8455  1  0.49232826  0.31212349  0.48937690  1.0
  O  O8456  1  0.49232826  0.47879016  0.48937690  1.0
  O  O8457  1  0.49232826  0.64545683  0.48937690  1.0
  O  O8458  1  0.49232826  0.81212349  0.48937690  1.0
  O  O8459  1  0.49232826  0.97879016  0.48937690  1.0
  O  O8460  1  0.57566159  0.14545683  0.48937690  1.0
  O  O8461  1  0.57566159  0.31212349  0.48937690  1.0
  O  O8462  1  0.57566159  0.47879016  0.48937690  1.0
  O  O8463  1  0.57566159  0.64545683  0.48937690  1.0
  O  O8464  1  0.57566159  0.81212349  0.48937690  1.0
  O  O8465  1  0.57566159  0.97879016  0.48937690  1.0
  O  O8466  1  0.65899492  0.14545683  0.48937690  1.0
  O  O8467  1  0.65899492  0.31212349  0.48937690  1.0
  O  O8468  1  0.65899492  0.47879016  0.48937690  1.0
  O  O8469  1  0.65899492  0.64545683  0.48937690  1.0
  O  O8470  1  0.65899492  0.81212349  0.48937690  1.0
  O  O8471  1  0.65899492  0.97879016  0.48937690  1.0
  O  O8472  1  0.74232826  0.14545683  0.48937690  1.0
  O  O8473  1  0.74232826  0.31212349  0.48937690  1.0
  O  O8474  1  0.74232826  0.47879016  0.48937690  1.0
  O  O8475  1  0.74232826  0.64545683  0.48937690  1.0
  O  O8476  1  0.74232826  0.81212349  0.48937690  1.0
  O  O8477  1  0.74232826  0.97879016  0.48937690  1.0
  O  O8478  1  0.82566159  0.14545683  0.48937690  1.0
  O  O8479  1  0.82566159  0.31212349  0.48937690  1.0
  O  O8480  1  0.82566159  0.47879016  0.48937690  1.0
  O  O8481  1  0.82566159  0.64545683  0.48937690  1.0
  O  O8482  1  0.82566159  0.81212349  0.48937690  1.0
  O  O8483  1  0.82566159  0.97879016  0.48937690  1.0
  O  O8484  1  0.90899492  0.14545683  0.48937690  1.0
  O  O8485  1  0.90899492  0.31212349  0.48937690  1.0
  O  O8486  1  0.90899492  0.47879016  0.48937690  1.0
  O  O8487  1  0.90899492  0.64545683  0.48937690  1.0
  O  O8488  1  0.90899492  0.81212349  0.48937690  1.0
  O  O8489  1  0.90899492  0.97879016  0.48937690  1.0
  O  O8490  1  0.99232826  0.14545683  0.48937690  1.0
  O  O8491  1  0.99232826  0.31212349  0.48937690  1.0
  O  O8492  1  0.99232826  0.47879016  0.48937690  1.0
  O  O8493  1  0.99232826  0.64545683  0.48937690  1.0
  O  O8494  1  0.99232826  0.81212349  0.48937690  1.0
  O  O8495  1  0.99232826  0.97879016  0.48937690  1.0
  O  O8496  1  0.01613778  0.15736159  0.41794833  1.0
  O  O8497  1  0.01613778  0.32402826  0.41794833  1.0
  O  O8498  1  0.01613778  0.49069492  0.41794833  1.0
  O  O8499  1  0.01613778  0.65736159  0.41794833  1.0
  O  O8500  1  0.01613778  0.82402826  0.41794833  1.0
  O  O8501  1  0.01613778  0.99069492  0.41794833  1.0
  O  O8502  1  0.09947111  0.15736159  0.41794833  1.0
  O  O8503  1  0.09947111  0.32402826  0.41794833  1.0
  O  O8504  1  0.09947111  0.49069492  0.41794833  1.0
  O  O8505  1  0.09947111  0.65736159  0.41794833  1.0
  O  O8506  1  0.09947111  0.82402826  0.41794833  1.0
  O  O8507  1  0.09947111  0.99069492  0.41794833  1.0
  O  O8508  1  0.18280445  0.15736159  0.41794833  1.0
  O  O8509  1  0.18280445  0.32402826  0.41794833  1.0
  O  O8510  1  0.18280445  0.49069492  0.41794833  1.0
  O  O8511  1  0.18280445  0.65736159  0.41794833  1.0
  O  O8512  1  0.18280445  0.82402826  0.41794833  1.0
  O  O8513  1  0.18280445  0.99069492  0.41794833  1.0
  O  O8514  1  0.26613778  0.15736159  0.41794833  1.0
  O  O8515  1  0.26613778  0.32402826  0.41794833  1.0
  O  O8516  1  0.26613778  0.49069492  0.41794833  1.0
  O  O8517  1  0.26613778  0.65736159  0.41794833  1.0
  O  O8518  1  0.26613778  0.82402826  0.41794833  1.0
  O  O8519  1  0.26613778  0.99069492  0.41794833  1.0
  O  O8520  1  0.34947111  0.15736159  0.41794833  1.0
  O  O8521  1  0.34947111  0.32402826  0.41794833  1.0
  O  O8522  1  0.34947111  0.49069492  0.41794833  1.0
  O  O8523  1  0.34947111  0.65736159  0.41794833  1.0
  O  O8524  1  0.34947111  0.82402826  0.41794833  1.0
  O  O8525  1  0.34947111  0.99069492  0.41794833  1.0
  O  O8526  1  0.43280445  0.15736159  0.41794833  1.0
  O  O8527  1  0.43280445  0.32402826  0.41794833  1.0
  O  O8528  1  0.43280445  0.49069492  0.41794833  1.0
  O  O8529  1  0.43280445  0.65736159  0.41794833  1.0
  O  O8530  1  0.43280445  0.82402826  0.41794833  1.0
  O  O8531  1  0.43280445  0.99069492  0.41794833  1.0
  O  O8532  1  0.51613778  0.15736159  0.41794833  1.0
  O  O8533  1  0.51613778  0.32402826  0.41794833  1.0
  O  O8534  1  0.51613778  0.49069492  0.41794833  1.0
  O  O8535  1  0.51613778  0.65736159  0.41794833  1.0
  O  O8536  1  0.51613778  0.82402826  0.41794833  1.0
  O  O8537  1  0.51613778  0.99069492  0.41794833  1.0
  O  O8538  1  0.59947111  0.15736159  0.41794833  1.0
  O  O8539  1  0.59947111  0.32402826  0.41794833  1.0
  O  O8540  1  0.59947111  0.49069492  0.41794833  1.0
  O  O8541  1  0.59947111  0.65736159  0.41794833  1.0
  O  O8542  1  0.59947111  0.82402826  0.41794833  1.0
  O  O8543  1  0.59947111  0.99069492  0.41794833  1.0
  O  O8544  1  0.68280445  0.15736159  0.41794833  1.0
  O  O8545  1  0.68280445  0.32402826  0.41794833  1.0
  O  O8546  1  0.68280445  0.49069492  0.41794833  1.0
  O  O8547  1  0.68280445  0.65736159  0.41794833  1.0
  O  O8548  1  0.68280445  0.82402826  0.41794833  1.0
  O  O8549  1  0.68280445  0.99069492  0.41794833  1.0
  O  O8550  1  0.76613778  0.15736159  0.41794833  1.0
  O  O8551  1  0.76613778  0.32402826  0.41794833  1.0
  O  O8552  1  0.76613778  0.49069492  0.41794833  1.0
  O  O8553  1  0.76613778  0.65736159  0.41794833  1.0
  O  O8554  1  0.76613778  0.82402826  0.41794833  1.0
  O  O8555  1  0.76613778  0.99069492  0.41794833  1.0
  O  O8556  1  0.84947111  0.15736159  0.41794833  1.0
  O  O8557  1  0.84947111  0.32402826  0.41794833  1.0
  O  O8558  1  0.84947111  0.49069492  0.41794833  1.0
  O  O8559  1  0.84947111  0.65736159  0.41794833  1.0
  O  O8560  1  0.84947111  0.82402826  0.41794833  1.0
  O  O8561  1  0.84947111  0.99069492  0.41794833  1.0
  O  O8562  1  0.93280445  0.15736159  0.41794833  1.0
  O  O8563  1  0.93280445  0.32402826  0.41794833  1.0
  O  O8564  1  0.93280445  0.49069492  0.41794833  1.0
  O  O8565  1  0.93280445  0.65736159  0.41794833  1.0
  O  O8566  1  0.93280445  0.82402826  0.41794833  1.0
  O  O8567  1  0.93280445  0.99069492  0.41794833  1.0
  O  O8568  1  0.07283189  0.02374547  0.49877799  1.0
  O  O8569  1  0.07283189  0.19041214  0.49877799  1.0
  O  O8570  1  0.07283189  0.35707881  0.49877799  1.0
  O  O8571  1  0.07283189  0.52374547  0.49877799  1.0
  O  O8572  1  0.07283189  0.69041214  0.49877799  1.0
  O  O8573  1  0.07283189  0.85707881  0.49877799  1.0
  O  O8574  1  0.15616522  0.02374547  0.49877799  1.0
  O  O8575  1  0.15616522  0.19041214  0.49877799  1.0
  O  O8576  1  0.15616522  0.35707881  0.49877799  1.0
  O  O8577  1  0.15616522  0.52374547  0.49877799  1.0
  O  O8578  1  0.15616522  0.69041214  0.49877799  1.0
  O  O8579  1  0.15616522  0.85707881  0.49877799  1.0
  O  O8580  1  0.23949855  0.02374547  0.49877799  1.0
  O  O8581  1  0.23949855  0.19041214  0.49877799  1.0
  O  O8582  1  0.23949855  0.35707881  0.49877799  1.0
  O  O8583  1  0.23949855  0.52374547  0.49877799  1.0
  O  O8584  1  0.23949855  0.69041214  0.49877799  1.0
  O  O8585  1  0.23949855  0.85707881  0.49877799  1.0
  O  O8586  1  0.32283189  0.02374547  0.49877799  1.0
  O  O8587  1  0.32283189  0.19041214  0.49877799  1.0
  O  O8588  1  0.32283189  0.35707881  0.49877799  1.0
  O  O8589  1  0.32283189  0.52374547  0.49877799  1.0
  O  O8590  1  0.32283189  0.69041214  0.49877799  1.0
  O  O8591  1  0.32283189  0.85707881  0.49877799  1.0
  O  O8592  1  0.40616522  0.02374547  0.49877799  1.0
  O  O8593  1  0.40616522  0.19041214  0.49877799  1.0
  O  O8594  1  0.40616522  0.35707881  0.49877799  1.0
  O  O8595  1  0.40616522  0.52374547  0.49877799  1.0
  O  O8596  1  0.40616522  0.69041214  0.49877799  1.0
  O  O8597  1  0.40616522  0.85707881  0.49877799  1.0
  O  O8598  1  0.48949855  0.02374547  0.49877799  1.0
  O  O8599  1  0.48949855  0.19041214  0.49877799  1.0
  O  O8600  1  0.48949855  0.35707881  0.49877799  1.0
  O  O8601  1  0.48949855  0.52374547  0.49877799  1.0
  O  O8602  1  0.48949855  0.69041214  0.49877799  1.0
  O  O8603  1  0.48949855  0.85707881  0.49877799  1.0
  O  O8604  1  0.57283189  0.02374547  0.49877799  1.0
  O  O8605  1  0.57283189  0.19041214  0.49877799  1.0
  O  O8606  1  0.57283189  0.35707881  0.49877799  1.0
  O  O8607  1  0.57283189  0.52374547  0.49877799  1.0
  O  O8608  1  0.57283189  0.69041214  0.49877799  1.0
  O  O8609  1  0.57283189  0.85707881  0.49877799  1.0
  O  O8610  1  0.65616522  0.02374547  0.49877799  1.0
  O  O8611  1  0.65616522  0.19041214  0.49877799  1.0
  O  O8612  1  0.65616522  0.35707881  0.49877799  1.0
  O  O8613  1  0.65616522  0.52374547  0.49877799  1.0
  O  O8614  1  0.65616522  0.69041214  0.49877799  1.0
  O  O8615  1  0.65616522  0.85707881  0.49877799  1.0
  O  O8616  1  0.73949855  0.02374547  0.49877799  1.0
  O  O8617  1  0.73949855  0.19041214  0.49877799  1.0
  O  O8618  1  0.73949855  0.35707881  0.49877799  1.0
  O  O8619  1  0.73949855  0.52374547  0.49877799  1.0
  O  O8620  1  0.73949855  0.69041214  0.49877799  1.0
  O  O8621  1  0.73949855  0.85707881  0.49877799  1.0
  O  O8622  1  0.82283189  0.02374547  0.49877799  1.0
  O  O8623  1  0.82283189  0.19041214  0.49877799  1.0
  O  O8624  1  0.82283189  0.35707881  0.49877799  1.0
  O  O8625  1  0.82283189  0.52374547  0.49877799  1.0
  O  O8626  1  0.82283189  0.69041214  0.49877799  1.0
  O  O8627  1  0.82283189  0.85707881  0.49877799  1.0
  O  O8628  1  0.90616522  0.02374547  0.49877799  1.0
  O  O8629  1  0.90616522  0.19041214  0.49877799  1.0
  O  O8630  1  0.90616522  0.35707881  0.49877799  1.0
  O  O8631  1  0.90616522  0.52374547  0.49877799  1.0
  O  O8632  1  0.90616522  0.69041214  0.49877799  1.0
  O  O8633  1  0.90616522  0.85707881  0.49877799  1.0
  O  O8634  1  0.98949855  0.02374547  0.49877799  1.0
  O  O8635  1  0.98949855  0.19041214  0.49877799  1.0
  O  O8636  1  0.98949855  0.35707881  0.49877799  1.0
  O  O8637  1  0.98949855  0.52374547  0.49877799  1.0
  O  O8638  1  0.98949855  0.69041214  0.49877799  1.0
  O  O8639  1  0.98949855  0.85707881  0.49877799  1.0
  O  O8640  1  0.01330808  0.03565023  0.42734941  1.0
  O  O8641  1  0.01330808  0.20231690  0.42734941  1.0
  O  O8642  1  0.01330808  0.36898357  0.42734941  1.0
  O  O8643  1  0.01330808  0.53565023  0.42734941  1.0
  O  O8644  1  0.01330808  0.70231690  0.42734941  1.0
  O  O8645  1  0.01330808  0.86898357  0.42734941  1.0
  O  O8646  1  0.09664141  0.03565023  0.42734941  1.0
  O  O8647  1  0.09664141  0.20231690  0.42734941  1.0
  O  O8648  1  0.09664141  0.36898357  0.42734941  1.0
  O  O8649  1  0.09664141  0.53565023  0.42734941  1.0
  O  O8650  1  0.09664141  0.70231690  0.42734941  1.0
  O  O8651  1  0.09664141  0.86898357  0.42734941  1.0
  O  O8652  1  0.17997474  0.03565023  0.42734941  1.0
  O  O8653  1  0.17997474  0.20231690  0.42734941  1.0
  O  O8654  1  0.17997474  0.36898357  0.42734941  1.0
  O  O8655  1  0.17997474  0.53565023  0.42734941  1.0
  O  O8656  1  0.17997474  0.70231690  0.42734941  1.0
  O  O8657  1  0.17997474  0.86898357  0.42734941  1.0
  O  O8658  1  0.26330808  0.03565023  0.42734941  1.0
  O  O8659  1  0.26330808  0.20231690  0.42734941  1.0
  O  O8660  1  0.26330808  0.36898357  0.42734941  1.0
  O  O8661  1  0.26330808  0.53565023  0.42734941  1.0
  O  O8662  1  0.26330808  0.70231690  0.42734941  1.0
  O  O8663  1  0.26330808  0.86898357  0.42734941  1.0
  O  O8664  1  0.34664141  0.03565023  0.42734941  1.0
  O  O8665  1  0.34664141  0.20231690  0.42734941  1.0
  O  O8666  1  0.34664141  0.36898357  0.42734941  1.0
  O  O8667  1  0.34664141  0.53565023  0.42734941  1.0
  O  O8668  1  0.34664141  0.70231690  0.42734941  1.0
  O  O8669  1  0.34664141  0.86898357  0.42734941  1.0
  O  O8670  1  0.42997474  0.03565023  0.42734941  1.0
  O  O8671  1  0.42997474  0.20231690  0.42734941  1.0
  O  O8672  1  0.42997474  0.36898357  0.42734941  1.0
  O  O8673  1  0.42997474  0.53565023  0.42734941  1.0
  O  O8674  1  0.42997474  0.70231690  0.42734941  1.0
  O  O8675  1  0.42997474  0.86898357  0.42734941  1.0
  O  O8676  1  0.51330808  0.03565023  0.42734941  1.0
  O  O8677  1  0.51330808  0.20231690  0.42734941  1.0
  O  O8678  1  0.51330808  0.36898357  0.42734941  1.0
  O  O8679  1  0.51330808  0.53565023  0.42734941  1.0
  O  O8680  1  0.51330808  0.70231690  0.42734941  1.0
  O  O8681  1  0.51330808  0.86898357  0.42734941  1.0
  O  O8682  1  0.59664141  0.03565023  0.42734941  1.0
  O  O8683  1  0.59664141  0.20231690  0.42734941  1.0
  O  O8684  1  0.59664141  0.36898357  0.42734941  1.0
  O  O8685  1  0.59664141  0.53565023  0.42734941  1.0
  O  O8686  1  0.59664141  0.70231690  0.42734941  1.0
  O  O8687  1  0.59664141  0.86898357  0.42734941  1.0
  O  O8688  1  0.67997474  0.03565023  0.42734941  1.0
  O  O8689  1  0.67997474  0.20231690  0.42734941  1.0
  O  O8690  1  0.67997474  0.36898357  0.42734941  1.0
  O  O8691  1  0.67997474  0.53565023  0.42734941  1.0
  O  O8692  1  0.67997474  0.70231690  0.42734941  1.0
  O  O8693  1  0.67997474  0.86898357  0.42734941  1.0
  O  O8694  1  0.76330808  0.03565023  0.42734941  1.0
  O  O8695  1  0.76330808  0.20231690  0.42734941  1.0
  O  O8696  1  0.76330808  0.36898357  0.42734941  1.0
  O  O8697  1  0.76330808  0.53565023  0.42734941  1.0
  O  O8698  1  0.76330808  0.70231690  0.42734941  1.0
  O  O8699  1  0.76330808  0.86898357  0.42734941  1.0
  O  O8700  1  0.84664141  0.03565023  0.42734941  1.0
  O  O8701  1  0.84664141  0.20231690  0.42734941  1.0
  O  O8702  1  0.84664141  0.36898357  0.42734941  1.0
  O  O8703  1  0.84664141  0.53565023  0.42734941  1.0
  O  O8704  1  0.84664141  0.70231690  0.42734941  1.0
  O  O8705  1  0.84664141  0.86898357  0.42734941  1.0
  O  O8706  1  0.92997474  0.03565023  0.42734941  1.0
  O  O8707  1  0.92997474  0.20231690  0.42734941  1.0
  O  O8708  1  0.92997474  0.36898357  0.42734941  1.0
  O  O8709  1  0.92997474  0.53565023  0.42734941  1.0
  O  O8710  1  0.92997474  0.70231690  0.42734941  1.0
  O  O8711  1  0.92997474  0.86898357  0.42734941  1.0
  O  O8712  1  0.03457399  0.09412427  0.36794697  1.0
  O  O8713  1  0.03457399  0.26079094  0.36794697  1.0
  O  O8714  1  0.03457399  0.42745760  0.36794697  1.0
  O  O8715  1  0.03457399  0.59412427  0.36794697  1.0
  O  O8716  1  0.03457399  0.76079094  0.36794697  1.0
  O  O8717  1  0.03457399  0.92745760  0.36794697  1.0
  O  O8718  1  0.11790732  0.09412427  0.36794697  1.0
  O  O8719  1  0.11790732  0.26079094  0.36794697  1.0
  O  O8720  1  0.11790732  0.42745760  0.36794697  1.0
  O  O8721  1  0.11790732  0.59412427  0.36794697  1.0
  O  O8722  1  0.11790732  0.76079094  0.36794697  1.0
  O  O8723  1  0.11790732  0.92745760  0.36794697  1.0
  O  O8724  1  0.20124066  0.09412427  0.36794697  1.0
  O  O8725  1  0.20124066  0.26079094  0.36794697  1.0
  O  O8726  1  0.20124066  0.42745760  0.36794697  1.0
  O  O8727  1  0.20124066  0.59412427  0.36794697  1.0
  O  O8728  1  0.20124066  0.76079094  0.36794697  1.0
  O  O8729  1  0.20124066  0.92745760  0.36794697  1.0
  O  O8730  1  0.28457399  0.09412427  0.36794697  1.0
  O  O8731  1  0.28457399  0.26079094  0.36794697  1.0
  O  O8732  1  0.28457399  0.42745760  0.36794697  1.0
  O  O8733  1  0.28457399  0.59412427  0.36794697  1.0
  O  O8734  1  0.28457399  0.76079094  0.36794697  1.0
  O  O8735  1  0.28457399  0.92745760  0.36794697  1.0
  O  O8736  1  0.36790732  0.09412427  0.36794697  1.0
  O  O8737  1  0.36790732  0.26079094  0.36794697  1.0
  O  O8738  1  0.36790732  0.42745760  0.36794697  1.0
  O  O8739  1  0.36790732  0.59412427  0.36794697  1.0
  O  O8740  1  0.36790732  0.76079094  0.36794697  1.0
  O  O8741  1  0.36790732  0.92745760  0.36794697  1.0
  O  O8742  1  0.45124066  0.09412427  0.36794697  1.0
  O  O8743  1  0.45124066  0.26079094  0.36794697  1.0
  O  O8744  1  0.45124066  0.42745760  0.36794697  1.0
  O  O8745  1  0.45124066  0.59412427  0.36794697  1.0
  O  O8746  1  0.45124066  0.76079094  0.36794697  1.0
  O  O8747  1  0.45124066  0.92745760  0.36794697  1.0
  O  O8748  1  0.53457399  0.09412427  0.36794697  1.0
  O  O8749  1  0.53457399  0.26079094  0.36794697  1.0
  O  O8750  1  0.53457399  0.42745760  0.36794697  1.0
  O  O8751  1  0.53457399  0.59412427  0.36794697  1.0
  O  O8752  1  0.53457399  0.76079094  0.36794697  1.0
  O  O8753  1  0.53457399  0.92745760  0.36794697  1.0
  O  O8754  1  0.61790732  0.09412427  0.36794697  1.0
  O  O8755  1  0.61790732  0.26079094  0.36794697  1.0
  O  O8756  1  0.61790732  0.42745760  0.36794697  1.0
  O  O8757  1  0.61790732  0.59412427  0.36794697  1.0
  O  O8758  1  0.61790732  0.76079094  0.36794697  1.0
  O  O8759  1  0.61790732  0.92745760  0.36794697  1.0
  O  O8760  1  0.70124066  0.09412427  0.36794697  1.0
  O  O8761  1  0.70124066  0.26079094  0.36794697  1.0
  O  O8762  1  0.70124066  0.42745760  0.36794697  1.0
  O  O8763  1  0.70124066  0.59412427  0.36794697  1.0
  O  O8764  1  0.70124066  0.76079094  0.36794697  1.0
  O  O8765  1  0.70124066  0.92745760  0.36794697  1.0
  O  O8766  1  0.78457399  0.09412427  0.36794697  1.0
  O  O8767  1  0.78457399  0.26079094  0.36794697  1.0
  O  O8768  1  0.78457399  0.42745760  0.36794697  1.0
  O  O8769  1  0.78457399  0.59412427  0.36794697  1.0
  O  O8770  1  0.78457399  0.76079094  0.36794697  1.0
  O  O8771  1  0.78457399  0.92745760  0.36794697  1.0
  O  O8772  1  0.86790732  0.09412427  0.36794697  1.0
  O  O8773  1  0.86790732  0.26079094  0.36794697  1.0
  O  O8774  1  0.86790732  0.42745760  0.36794697  1.0
  O  O8775  1  0.86790732  0.59412427  0.36794697  1.0
  O  O8776  1  0.86790732  0.76079094  0.36794697  1.0
  O  O8777  1  0.86790732  0.92745760  0.36794697  1.0
  O  O8778  1  0.95124066  0.09412427  0.36794697  1.0
  O  O8779  1  0.95124066  0.26079094  0.36794697  1.0
  O  O8780  1  0.95124066  0.42745760  0.36794697  1.0
  O  O8781  1  0.95124066  0.59412427  0.36794697  1.0
  O  O8782  1  0.95124066  0.76079094  0.36794697  1.0
  O  O8783  1  0.95124066  0.92745760  0.36794697  1.0
  O  O8784  1  0.01076447  0.08221951  0.43937555  1.0
  O  O8785  1  0.01076447  0.24888617  0.43937555  1.0
  O  O8786  1  0.01076447  0.41555284  0.43937555  1.0
  O  O8787  1  0.01076447  0.58221951  0.43937555  1.0
  O  O8788  1  0.01076447  0.74888617  0.43937555  1.0
  O  O8789  1  0.01076447  0.91555284  0.43937555  1.0
  O  O8790  1  0.09409780  0.08221951  0.43937555  1.0
  O  O8791  1  0.09409780  0.24888617  0.43937555  1.0
  O  O8792  1  0.09409780  0.41555284  0.43937555  1.0
  O  O8793  1  0.09409780  0.58221951  0.43937555  1.0
  O  O8794  1  0.09409780  0.74888617  0.43937555  1.0
  O  O8795  1  0.09409780  0.91555284  0.43937555  1.0
  O  O8796  1  0.17743113  0.08221951  0.43937555  1.0
  O  O8797  1  0.17743113  0.24888617  0.43937555  1.0
  O  O8798  1  0.17743113  0.41555284  0.43937555  1.0
  O  O8799  1  0.17743113  0.58221951  0.43937555  1.0
  O  O8800  1  0.17743113  0.74888617  0.43937555  1.0
  O  O8801  1  0.17743113  0.91555284  0.43937555  1.0
  O  O8802  1  0.26076447  0.08221951  0.43937555  1.0
  O  O8803  1  0.26076447  0.24888617  0.43937555  1.0
  O  O8804  1  0.26076447  0.41555284  0.43937555  1.0
  O  O8805  1  0.26076447  0.58221951  0.43937555  1.0
  O  O8806  1  0.26076447  0.74888617  0.43937555  1.0
  O  O8807  1  0.26076447  0.91555284  0.43937555  1.0
  O  O8808  1  0.34409780  0.08221951  0.43937555  1.0
  O  O8809  1  0.34409780  0.24888617  0.43937555  1.0
  O  O8810  1  0.34409780  0.41555284  0.43937555  1.0
  O  O8811  1  0.34409780  0.58221951  0.43937555  1.0
  O  O8812  1  0.34409780  0.74888617  0.43937555  1.0
  O  O8813  1  0.34409780  0.91555284  0.43937555  1.0
  O  O8814  1  0.42743113  0.08221951  0.43937555  1.0
  O  O8815  1  0.42743113  0.24888617  0.43937555  1.0
  O  O8816  1  0.42743113  0.41555284  0.43937555  1.0
  O  O8817  1  0.42743113  0.58221951  0.43937555  1.0
  O  O8818  1  0.42743113  0.74888617  0.43937555  1.0
  O  O8819  1  0.42743113  0.91555284  0.43937555  1.0
  O  O8820  1  0.51076447  0.08221951  0.43937555  1.0
  O  O8821  1  0.51076447  0.24888617  0.43937555  1.0
  O  O8822  1  0.51076447  0.41555284  0.43937555  1.0
  O  O8823  1  0.51076447  0.58221951  0.43937555  1.0
  O  O8824  1  0.51076447  0.74888617  0.43937555  1.0
  O  O8825  1  0.51076447  0.91555284  0.43937555  1.0
  O  O8826  1  0.59409780  0.08221951  0.43937555  1.0
  O  O8827  1  0.59409780  0.24888617  0.43937555  1.0
  O  O8828  1  0.59409780  0.41555284  0.43937555  1.0
  O  O8829  1  0.59409780  0.58221951  0.43937555  1.0
  O  O8830  1  0.59409780  0.74888617  0.43937555  1.0
  O  O8831  1  0.59409780  0.91555284  0.43937555  1.0
  O  O8832  1  0.67743113  0.08221951  0.43937555  1.0
  O  O8833  1  0.67743113  0.24888617  0.43937555  1.0
  O  O8834  1  0.67743113  0.41555284  0.43937555  1.0
  O  O8835  1  0.67743113  0.58221951  0.43937555  1.0
  O  O8836  1  0.67743113  0.74888617  0.43937555  1.0
  O  O8837  1  0.67743113  0.91555284  0.43937555  1.0
  O  O8838  1  0.76076447  0.08221951  0.43937555  1.0
  O  O8839  1  0.76076447  0.24888617  0.43937555  1.0
  O  O8840  1  0.76076447  0.41555284  0.43937555  1.0
  O  O8841  1  0.76076447  0.58221951  0.43937555  1.0
  O  O8842  1  0.76076447  0.74888617  0.43937555  1.0
  O  O8843  1  0.76076447  0.91555284  0.43937555  1.0
  O  O8844  1  0.84409780  0.08221951  0.43937555  1.0
  O  O8845  1  0.84409780  0.24888617  0.43937555  1.0
  O  O8846  1  0.84409780  0.41555284  0.43937555  1.0
  O  O8847  1  0.84409780  0.58221951  0.43937555  1.0
  O  O8848  1  0.84409780  0.74888617  0.43937555  1.0
  O  O8849  1  0.84409780  0.91555284  0.43937555  1.0
  O  O8850  1  0.92743113  0.08221951  0.43937555  1.0
  O  O8851  1  0.92743113  0.24888617  0.43937555  1.0
  O  O8852  1  0.92743113  0.41555284  0.43937555  1.0
  O  O8853  1  0.92743113  0.58221951  0.43937555  1.0
  O  O8854  1  0.92743113  0.74888617  0.43937555  1.0
  O  O8855  1  0.92743113  0.91555284  0.43937555  1.0
  O  O8856  1  0.03283297  0.00144867  0.49436622  1.0
  O  O8857  1  0.03283297  0.16811534  0.49436622  1.0
  O  O8858  1  0.03283297  0.33478201  0.49436622  1.0
  O  O8859  1  0.03283297  0.50144867  0.49436622  1.0
  O  O8860  1  0.03283297  0.66811534  0.49436622  1.0
  O  O8861  1  0.03283297  0.83478201  0.49436622  1.0
  O  O8862  1  0.11616630  0.00144867  0.49436622  1.0
  O  O8863  1  0.11616630  0.16811534  0.49436622  1.0
  O  O8864  1  0.11616630  0.33478201  0.49436622  1.0
  O  O8865  1  0.11616630  0.50144867  0.49436622  1.0
  O  O8866  1  0.11616630  0.66811534  0.49436622  1.0
  O  O8867  1  0.11616630  0.83478201  0.49436622  1.0
  O  O8868  1  0.19949964  0.00144867  0.49436622  1.0
  O  O8869  1  0.19949964  0.16811534  0.49436622  1.0
  O  O8870  1  0.19949964  0.33478201  0.49436622  1.0
  O  O8871  1  0.19949964  0.50144867  0.49436622  1.0
  O  O8872  1  0.19949964  0.66811534  0.49436622  1.0
  O  O8873  1  0.19949964  0.83478201  0.49436622  1.0
  O  O8874  1  0.28283297  0.00144867  0.49436622  1.0
  O  O8875  1  0.28283297  0.16811534  0.49436622  1.0
  O  O8876  1  0.28283297  0.33478201  0.49436622  1.0
  O  O8877  1  0.28283297  0.50144867  0.49436622  1.0
  O  O8878  1  0.28283297  0.66811534  0.49436622  1.0
  O  O8879  1  0.28283297  0.83478201  0.49436622  1.0
  O  O8880  1  0.36616630  0.00144867  0.49436622  1.0
  O  O8881  1  0.36616630  0.16811534  0.49436622  1.0
  O  O8882  1  0.36616630  0.33478201  0.49436622  1.0
  O  O8883  1  0.36616630  0.50144867  0.49436622  1.0
  O  O8884  1  0.36616630  0.66811534  0.49436622  1.0
  O  O8885  1  0.36616630  0.83478201  0.49436622  1.0
  O  O8886  1  0.44949964  0.00144867  0.49436622  1.0
  O  O8887  1  0.44949964  0.16811534  0.49436622  1.0
  O  O8888  1  0.44949964  0.33478201  0.49436622  1.0
  O  O8889  1  0.44949964  0.50144867  0.49436622  1.0
  O  O8890  1  0.44949964  0.66811534  0.49436622  1.0
  O  O8891  1  0.44949964  0.83478201  0.49436622  1.0
  O  O8892  1  0.53283297  0.00144867  0.49436622  1.0
  O  O8893  1  0.53283297  0.16811534  0.49436622  1.0
  O  O8894  1  0.53283297  0.33478201  0.49436622  1.0
  O  O8895  1  0.53283297  0.50144867  0.49436622  1.0
  O  O8896  1  0.53283297  0.66811534  0.49436622  1.0
  O  O8897  1  0.53283297  0.83478201  0.49436622  1.0
  O  O8898  1  0.61616630  0.00144867  0.49436622  1.0
  O  O8899  1  0.61616630  0.16811534  0.49436622  1.0
  O  O8900  1  0.61616630  0.33478201  0.49436622  1.0
  O  O8901  1  0.61616630  0.50144867  0.49436622  1.0
  O  O8902  1  0.61616630  0.66811534  0.49436622  1.0
  O  O8903  1  0.61616630  0.83478201  0.49436622  1.0
  O  O8904  1  0.69949964  0.00144867  0.49436622  1.0
  O  O8905  1  0.69949964  0.16811534  0.49436622  1.0
  O  O8906  1  0.69949964  0.33478201  0.49436622  1.0
  O  O8907  1  0.69949964  0.50144867  0.49436622  1.0
  O  O8908  1  0.69949964  0.66811534  0.49436622  1.0
  O  O8909  1  0.69949964  0.83478201  0.49436622  1.0
  O  O8910  1  0.78283297  0.00144867  0.49436622  1.0
  O  O8911  1  0.78283297  0.16811534  0.49436622  1.0
  O  O8912  1  0.78283297  0.33478201  0.49436622  1.0
  O  O8913  1  0.78283297  0.50144867  0.49436622  1.0
  O  O8914  1  0.78283297  0.66811534  0.49436622  1.0
  O  O8915  1  0.78283297  0.83478201  0.49436622  1.0
  O  O8916  1  0.86616630  0.00144867  0.49436622  1.0
  O  O8917  1  0.86616630  0.16811534  0.49436622  1.0
  O  O8918  1  0.86616630  0.33478201  0.49436622  1.0
  O  O8919  1  0.86616630  0.50144867  0.49436622  1.0
  O  O8920  1  0.86616630  0.66811534  0.49436622  1.0
  O  O8921  1  0.86616630  0.83478201  0.49436622  1.0
  O  O8922  1  0.94949964  0.00144867  0.49436622  1.0
  O  O8923  1  0.94949964  0.16811534  0.49436622  1.0
  O  O8924  1  0.94949964  0.33478201  0.49436622  1.0
  O  O8925  1  0.94949964  0.50144867  0.49436622  1.0
  O  O8926  1  0.94949964  0.66811534  0.49436622  1.0
  O  O8927  1  0.94949964  0.83478201  0.49436622  1.0
  O  O8928  1  0.05664249  0.01335344  0.42293765  1.0
  O  O8929  1  0.05664249  0.18002010  0.42293765  1.0
  O  O8930  1  0.05664249  0.34668677  0.42293765  1.0
  O  O8931  1  0.05664249  0.51335344  0.42293765  1.0
  O  O8932  1  0.05664249  0.68002010  0.42293765  1.0
  O  O8933  1  0.05664249  0.84668677  0.42293765  1.0
  O  O8934  1  0.13997583  0.01335344  0.42293765  1.0
  O  O8935  1  0.13997583  0.18002010  0.42293765  1.0
  O  O8936  1  0.13997583  0.34668677  0.42293765  1.0
  O  O8937  1  0.13997583  0.51335344  0.42293765  1.0
  O  O8938  1  0.13997583  0.68002010  0.42293765  1.0
  O  O8939  1  0.13997583  0.84668677  0.42293765  1.0
  O  O8940  1  0.22330916  0.01335344  0.42293765  1.0
  O  O8941  1  0.22330916  0.18002010  0.42293765  1.0
  O  O8942  1  0.22330916  0.34668677  0.42293765  1.0
  O  O8943  1  0.22330916  0.51335344  0.42293765  1.0
  O  O8944  1  0.22330916  0.68002010  0.42293765  1.0
  O  O8945  1  0.22330916  0.84668677  0.42293765  1.0
  O  O8946  1  0.30664249  0.01335344  0.42293765  1.0
  O  O8947  1  0.30664249  0.18002010  0.42293765  1.0
  O  O8948  1  0.30664249  0.34668677  0.42293765  1.0
  O  O8949  1  0.30664249  0.51335344  0.42293765  1.0
  O  O8950  1  0.30664249  0.68002010  0.42293765  1.0
  O  O8951  1  0.30664249  0.84668677  0.42293765  1.0
  O  O8952  1  0.38997583  0.01335344  0.42293765  1.0
  O  O8953  1  0.38997583  0.18002010  0.42293765  1.0
  O  O8954  1  0.38997583  0.34668677  0.42293765  1.0
  O  O8955  1  0.38997583  0.51335344  0.42293765  1.0
  O  O8956  1  0.38997583  0.68002010  0.42293765  1.0
  O  O8957  1  0.38997583  0.84668677  0.42293765  1.0
  O  O8958  1  0.47330916  0.01335344  0.42293765  1.0
  O  O8959  1  0.47330916  0.18002010  0.42293765  1.0
  O  O8960  1  0.47330916  0.34668677  0.42293765  1.0
  O  O8961  1  0.47330916  0.51335344  0.42293765  1.0
  O  O8962  1  0.47330916  0.68002010  0.42293765  1.0
  O  O8963  1  0.47330916  0.84668677  0.42293765  1.0
  O  O8964  1  0.55664249  0.01335344  0.42293765  1.0
  O  O8965  1  0.55664249  0.18002010  0.42293765  1.0
  O  O8966  1  0.55664249  0.34668677  0.42293765  1.0
  O  O8967  1  0.55664249  0.51335344  0.42293765  1.0
  O  O8968  1  0.55664249  0.68002010  0.42293765  1.0
  O  O8969  1  0.55664249  0.84668677  0.42293765  1.0
  O  O8970  1  0.63997583  0.01335344  0.42293765  1.0
  O  O8971  1  0.63997583  0.18002010  0.42293765  1.0
  O  O8972  1  0.63997583  0.34668677  0.42293765  1.0
  O  O8973  1  0.63997583  0.51335344  0.42293765  1.0
  O  O8974  1  0.63997583  0.68002010  0.42293765  1.0
  O  O8975  1  0.63997583  0.84668677  0.42293765  1.0
  O  O8976  1  0.72330916  0.01335344  0.42293765  1.0
  O  O8977  1  0.72330916  0.18002010  0.42293765  1.0
  O  O8978  1  0.72330916  0.34668677  0.42293765  1.0
  O  O8979  1  0.72330916  0.51335344  0.42293765  1.0
  O  O8980  1  0.72330916  0.68002010  0.42293765  1.0
  O  O8981  1  0.72330916  0.84668677  0.42293765  1.0
  O  O8982  1  0.80664249  0.01335344  0.42293765  1.0
  O  O8983  1  0.80664249  0.18002010  0.42293765  1.0
  O  O8984  1  0.80664249  0.34668677  0.42293765  1.0
  O  O8985  1  0.80664249  0.51335344  0.42293765  1.0
  O  O8986  1  0.80664249  0.68002010  0.42293765  1.0
  O  O8987  1  0.80664249  0.84668677  0.42293765  1.0
  O  O8988  1  0.88997583  0.01335344  0.42293765  1.0
  O  O8989  1  0.88997583  0.18002010  0.42293765  1.0
  O  O8990  1  0.88997583  0.34668677  0.42293765  1.0
  O  O8991  1  0.88997583  0.51335344  0.42293765  1.0
  O  O8992  1  0.88997583  0.68002010  0.42293765  1.0
  O  O8993  1  0.88997583  0.84668677  0.42293765  1.0
  O  O8994  1  0.97330916  0.01335344  0.42293765  1.0
  O  O8995  1  0.97330916  0.18002010  0.42293765  1.0
  O  O8996  1  0.97330916  0.34668677  0.42293765  1.0
  O  O8997  1  0.97330916  0.51335344  0.42293765  1.0
  O  O8998  1  0.97330916  0.68002010  0.42293765  1.0
  O  O8999  1  0.97330916  0.84668677  0.42293765  1.0
  O  O9000  1  0.07995117  0.09961405  0.48001976  1.0
  O  O9001  1  0.07995117  0.26628072  0.48001976  1.0
  O  O9002  1  0.07995117  0.43294739  0.48001976  1.0
  O  O9003  1  0.07995117  0.59961405  0.48001976  1.0
  O  O9004  1  0.07995117  0.76628072  0.48001976  1.0
  O  O9005  1  0.07995117  0.93294739  0.48001976  1.0
  O  O9006  1  0.16328451  0.09961405  0.48001976  1.0
  O  O9007  1  0.16328451  0.26628072  0.48001976  1.0
  O  O9008  1  0.16328451  0.43294739  0.48001976  1.0
  O  O9009  1  0.16328451  0.59961405  0.48001976  1.0
  O  O9010  1  0.16328451  0.76628072  0.48001976  1.0
  O  O9011  1  0.16328451  0.93294739  0.48001976  1.0
  O  O9012  1  0.24661784  0.09961405  0.48001976  1.0
  O  O9013  1  0.24661784  0.26628072  0.48001976  1.0
  O  O9014  1  0.24661784  0.43294739  0.48001976  1.0
  O  O9015  1  0.24661784  0.59961405  0.48001976  1.0
  O  O9016  1  0.24661784  0.76628072  0.48001976  1.0
  O  O9017  1  0.24661784  0.93294739  0.48001976  1.0
  O  O9018  1  0.32995117  0.09961405  0.48001976  1.0
  O  O9019  1  0.32995117  0.26628072  0.48001976  1.0
  O  O9020  1  0.32995117  0.43294739  0.48001976  1.0
  O  O9021  1  0.32995117  0.59961405  0.48001976  1.0
  O  O9022  1  0.32995117  0.76628072  0.48001976  1.0
  O  O9023  1  0.32995117  0.93294739  0.48001976  1.0
  O  O9024  1  0.41328451  0.09961405  0.48001976  1.0
  O  O9025  1  0.41328451  0.26628072  0.48001976  1.0
  O  O9026  1  0.41328451  0.43294739  0.48001976  1.0
  O  O9027  1  0.41328451  0.59961405  0.48001976  1.0
  O  O9028  1  0.41328451  0.76628072  0.48001976  1.0
  O  O9029  1  0.41328451  0.93294739  0.48001976  1.0
  O  O9030  1  0.49661784  0.09961405  0.48001976  1.0
  O  O9031  1  0.49661784  0.26628072  0.48001976  1.0
  O  O9032  1  0.49661784  0.43294739  0.48001976  1.0
  O  O9033  1  0.49661784  0.59961405  0.48001976  1.0
  O  O9034  1  0.49661784  0.76628072  0.48001976  1.0
  O  O9035  1  0.49661784  0.93294739  0.48001976  1.0
  O  O9036  1  0.57995117  0.09961405  0.48001976  1.0
  O  O9037  1  0.57995117  0.26628072  0.48001976  1.0
  O  O9038  1  0.57995117  0.43294739  0.48001976  1.0
  O  O9039  1  0.57995117  0.59961405  0.48001976  1.0
  O  O9040  1  0.57995117  0.76628072  0.48001976  1.0
  O  O9041  1  0.57995117  0.93294739  0.48001976  1.0
  O  O9042  1  0.66328451  0.09961405  0.48001976  1.0
  O  O9043  1  0.66328451  0.26628072  0.48001976  1.0
  O  O9044  1  0.66328451  0.43294739  0.48001976  1.0
  O  O9045  1  0.66328451  0.59961405  0.48001976  1.0
  O  O9046  1  0.66328451  0.76628072  0.48001976  1.0
  O  O9047  1  0.66328451  0.93294739  0.48001976  1.0
  O  O9048  1  0.74661784  0.09961405  0.48001976  1.0
  O  O9049  1  0.74661784  0.26628072  0.48001976  1.0
  O  O9050  1  0.74661784  0.43294739  0.48001976  1.0
  O  O9051  1  0.74661784  0.59961405  0.48001976  1.0
  O  O9052  1  0.74661784  0.76628072  0.48001976  1.0
  O  O9053  1  0.74661784  0.93294739  0.48001976  1.0
  O  O9054  1  0.82995117  0.09961405  0.48001976  1.0
  O  O9055  1  0.82995117  0.26628072  0.48001976  1.0
  O  O9056  1  0.82995117  0.43294739  0.48001976  1.0
  O  O9057  1  0.82995117  0.59961405  0.48001976  1.0
  O  O9058  1  0.82995117  0.76628072  0.48001976  1.0
  O  O9059  1  0.82995117  0.93294739  0.48001976  1.0
  O  O9060  1  0.91328451  0.09961405  0.48001976  1.0
  O  O9061  1  0.91328451  0.26628072  0.48001976  1.0
  O  O9062  1  0.91328451  0.43294739  0.48001976  1.0
  O  O9063  1  0.91328451  0.59961405  0.48001976  1.0
  O  O9064  1  0.91328451  0.76628072  0.48001976  1.0
  O  O9065  1  0.91328451  0.93294739  0.48001976  1.0
  O  O9066  1  0.99661784  0.09961405  0.48001976  1.0
  O  O9067  1  0.99661784  0.26628072  0.48001976  1.0
  O  O9068  1  0.99661784  0.43294739  0.48001976  1.0
  O  O9069  1  0.99661784  0.59961405  0.48001976  1.0
  O  O9070  1  0.99661784  0.76628072  0.48001976  1.0
  O  O9071  1  0.99661784  0.93294739  0.48001976  1.0
  O  O9072  1  0.02042737  0.11151881  0.40859119  1.0
  O  O9073  1  0.02042737  0.27818548  0.40859119  1.0
  O  O9074  1  0.02042737  0.44485215  0.40859119  1.0
  O  O9075  1  0.02042737  0.61151881  0.40859119  1.0
  O  O9076  1  0.02042737  0.77818548  0.40859119  1.0
  O  O9077  1  0.02042737  0.94485215  0.40859119  1.0
  O  O9078  1  0.10376070  0.11151881  0.40859119  1.0
  O  O9079  1  0.10376070  0.27818548  0.40859119  1.0
  O  O9080  1  0.10376070  0.44485215  0.40859119  1.0
  O  O9081  1  0.10376070  0.61151881  0.40859119  1.0
  O  O9082  1  0.10376070  0.77818548  0.40859119  1.0
  O  O9083  1  0.10376070  0.94485215  0.40859119  1.0
  O  O9084  1  0.18709403  0.11151881  0.40859119  1.0
  O  O9085  1  0.18709403  0.27818548  0.40859119  1.0
  O  O9086  1  0.18709403  0.44485215  0.40859119  1.0
  O  O9087  1  0.18709403  0.61151881  0.40859119  1.0
  O  O9088  1  0.18709403  0.77818548  0.40859119  1.0
  O  O9089  1  0.18709403  0.94485215  0.40859119  1.0
  O  O9090  1  0.27042737  0.11151881  0.40859119  1.0
  O  O9091  1  0.27042737  0.27818548  0.40859119  1.0
  O  O9092  1  0.27042737  0.44485215  0.40859119  1.0
  O  O9093  1  0.27042737  0.61151881  0.40859119  1.0
  O  O9094  1  0.27042737  0.77818548  0.40859119  1.0
  O  O9095  1  0.27042737  0.94485215  0.40859119  1.0
  O  O9096  1  0.35376070  0.11151881  0.40859119  1.0
  O  O9097  1  0.35376070  0.27818548  0.40859119  1.0
  O  O9098  1  0.35376070  0.44485215  0.40859119  1.0
  O  O9099  1  0.35376070  0.61151881  0.40859119  1.0
  O  O9100  1  0.35376070  0.77818548  0.40859119  1.0
  O  O9101  1  0.35376070  0.94485215  0.40859119  1.0
  O  O9102  1  0.43709403  0.11151881  0.40859119  1.0
  O  O9103  1  0.43709403  0.27818548  0.40859119  1.0
  O  O9104  1  0.43709403  0.44485215  0.40859119  1.0
  O  O9105  1  0.43709403  0.61151881  0.40859119  1.0
  O  O9106  1  0.43709403  0.77818548  0.40859119  1.0
  O  O9107  1  0.43709403  0.94485215  0.40859119  1.0
  O  O9108  1  0.52042737  0.11151881  0.40859119  1.0
  O  O9109  1  0.52042737  0.27818548  0.40859119  1.0
  O  O9110  1  0.52042737  0.44485215  0.40859119  1.0
  O  O9111  1  0.52042737  0.61151881  0.40859119  1.0
  O  O9112  1  0.52042737  0.77818548  0.40859119  1.0
  O  O9113  1  0.52042737  0.94485215  0.40859119  1.0
  O  O9114  1  0.60376070  0.11151881  0.40859119  1.0
  O  O9115  1  0.60376070  0.27818548  0.40859119  1.0
  O  O9116  1  0.60376070  0.44485215  0.40859119  1.0
  O  O9117  1  0.60376070  0.61151881  0.40859119  1.0
  O  O9118  1  0.60376070  0.77818548  0.40859119  1.0
  O  O9119  1  0.60376070  0.94485215  0.40859119  1.0
  O  O9120  1  0.68709403  0.11151881  0.40859119  1.0
  O  O9121  1  0.68709403  0.27818548  0.40859119  1.0
  O  O9122  1  0.68709403  0.44485215  0.40859119  1.0
  O  O9123  1  0.68709403  0.61151881  0.40859119  1.0
  O  O9124  1  0.68709403  0.77818548  0.40859119  1.0
  O  O9125  1  0.68709403  0.94485215  0.40859119  1.0
  O  O9126  1  0.77042737  0.11151881  0.40859119  1.0
  O  O9127  1  0.77042737  0.27818548  0.40859119  1.0
  O  O9128  1  0.77042737  0.44485215  0.40859119  1.0
  O  O9129  1  0.77042737  0.61151881  0.40859119  1.0
  O  O9130  1  0.77042737  0.77818548  0.40859119  1.0
  O  O9131  1  0.77042737  0.94485215  0.40859119  1.0
  O  O9132  1  0.85376070  0.11151881  0.40859119  1.0
  O  O9133  1  0.85376070  0.27818548  0.40859119  1.0
  O  O9134  1  0.85376070  0.44485215  0.40859119  1.0
  O  O9135  1  0.85376070  0.61151881  0.40859119  1.0
  O  O9136  1  0.85376070  0.77818548  0.40859119  1.0
  O  O9137  1  0.85376070  0.94485215  0.40859119  1.0
  O  O9138  1  0.93709403  0.11151881  0.40859119  1.0
  O  O9139  1  0.93709403  0.27818548  0.40859119  1.0
  O  O9140  1  0.93709403  0.44485215  0.40859119  1.0
  O  O9141  1  0.93709403  0.61151881  0.40859119  1.0
  O  O9142  1  0.93709403  0.77818548  0.40859119  1.0
  O  O9143  1  0.93709403  0.94485215  0.40859119  1.0
  O  O9144  1  0.03883179  0.12178165  0.48339952  1.0
  O  O9145  1  0.03883179  0.28844832  0.48339952  1.0
  O  O9146  1  0.03883179  0.45511498  0.48339952  1.0
  O  O9147  1  0.03883179  0.62178165  0.48339952  1.0
  O  O9148  1  0.03883179  0.78844832  0.48339952  1.0
  O  O9149  1  0.03883179  0.95511498  0.48339952  1.0
  O  O9150  1  0.12216512  0.12178165  0.48339952  1.0
  O  O9151  1  0.12216512  0.28844832  0.48339952  1.0
  O  O9152  1  0.12216512  0.45511498  0.48339952  1.0
  O  O9153  1  0.12216512  0.62178165  0.48339952  1.0
  O  O9154  1  0.12216512  0.78844832  0.48339952  1.0
  O  O9155  1  0.12216512  0.95511498  0.48339952  1.0
  O  O9156  1  0.20549845  0.12178165  0.48339952  1.0
  O  O9157  1  0.20549845  0.28844832  0.48339952  1.0
  O  O9158  1  0.20549845  0.45511498  0.48339952  1.0
  O  O9159  1  0.20549845  0.62178165  0.48339952  1.0
  O  O9160  1  0.20549845  0.78844832  0.48339952  1.0
  O  O9161  1  0.20549845  0.95511498  0.48339952  1.0
  O  O9162  1  0.28883179  0.12178165  0.48339952  1.0
  O  O9163  1  0.28883179  0.28844832  0.48339952  1.0
  O  O9164  1  0.28883179  0.45511498  0.48339952  1.0
  O  O9165  1  0.28883179  0.62178165  0.48339952  1.0
  O  O9166  1  0.28883179  0.78844832  0.48339952  1.0
  O  O9167  1  0.28883179  0.95511498  0.48339952  1.0
  O  O9168  1  0.37216512  0.12178165  0.48339952  1.0
  O  O9169  1  0.37216512  0.28844832  0.48339952  1.0
  O  O9170  1  0.37216512  0.45511498  0.48339952  1.0
  O  O9171  1  0.37216512  0.62178165  0.48339952  1.0
  O  O9172  1  0.37216512  0.78844832  0.48339952  1.0
  O  O9173  1  0.37216512  0.95511498  0.48339952  1.0
  O  O9174  1  0.45549845  0.12178165  0.48339952  1.0
  O  O9175  1  0.45549845  0.28844832  0.48339952  1.0
  O  O9176  1  0.45549845  0.45511498  0.48339952  1.0
  O  O9177  1  0.45549845  0.62178165  0.48339952  1.0
  O  O9178  1  0.45549845  0.78844832  0.48339952  1.0
  O  O9179  1  0.45549845  0.95511498  0.48339952  1.0
  O  O9180  1  0.53883179  0.12178165  0.48339952  1.0
  O  O9181  1  0.53883179  0.28844832  0.48339952  1.0
  O  O9182  1  0.53883179  0.45511498  0.48339952  1.0
  O  O9183  1  0.53883179  0.62178165  0.48339952  1.0
  O  O9184  1  0.53883179  0.78844832  0.48339952  1.0
  O  O9185  1  0.53883179  0.95511498  0.48339952  1.0
  O  O9186  1  0.62216512  0.12178165  0.48339952  1.0
  O  O9187  1  0.62216512  0.28844832  0.48339952  1.0
  O  O9188  1  0.62216512  0.45511498  0.48339952  1.0
  O  O9189  1  0.62216512  0.62178165  0.48339952  1.0
  O  O9190  1  0.62216512  0.78844832  0.48339952  1.0
  O  O9191  1  0.62216512  0.95511498  0.48339952  1.0
  O  O9192  1  0.70549845  0.12178165  0.48339952  1.0
  O  O9193  1  0.70549845  0.28844832  0.48339952  1.0
  O  O9194  1  0.70549845  0.45511498  0.48339952  1.0
  O  O9195  1  0.70549845  0.62178165  0.48339952  1.0
  O  O9196  1  0.70549845  0.78844832  0.48339952  1.0
  O  O9197  1  0.70549845  0.95511498  0.48339952  1.0
  O  O9198  1  0.78883179  0.12178165  0.48339952  1.0
  O  O9199  1  0.78883179  0.28844832  0.48339952  1.0
  O  O9200  1  0.78883179  0.45511498  0.48339952  1.0
  O  O9201  1  0.78883179  0.62178165  0.48339952  1.0
  O  O9202  1  0.78883179  0.78844832  0.48339952  1.0
  O  O9203  1  0.78883179  0.95511498  0.48339952  1.0
  O  O9204  1  0.87216512  0.12178165  0.48339952  1.0
  O  O9205  1  0.87216512  0.28844832  0.48339952  1.0
  O  O9206  1  0.87216512  0.45511498  0.48339952  1.0
  O  O9207  1  0.87216512  0.62178165  0.48339952  1.0
  O  O9208  1  0.87216512  0.78844832  0.48339952  1.0
  O  O9209  1  0.87216512  0.95511498  0.48339952  1.0
  O  O9210  1  0.95549845  0.12178165  0.48339952  1.0
  O  O9211  1  0.95549845  0.28844832  0.48339952  1.0
  O  O9212  1  0.95549845  0.45511498  0.48339952  1.0
  O  O9213  1  0.95549845  0.62178165  0.48339952  1.0
  O  O9214  1  0.95549845  0.78844832  0.48339952  1.0
  O  O9215  1  0.95549845  0.95511498  0.48339952  1.0
  O  O9216  1  0.06264131  0.13368641  0.41197095  1.0
  O  O9217  1  0.06264131  0.30035308  0.41197095  1.0
  O  O9218  1  0.06264131  0.46701975  0.41197095  1.0
  O  O9219  1  0.06264131  0.63368641  0.41197095  1.0
  O  O9220  1  0.06264131  0.80035308  0.41197095  1.0
  O  O9221  1  0.06264131  0.96701975  0.41197095  1.0
  O  O9222  1  0.14597464  0.13368641  0.41197095  1.0
  O  O9223  1  0.14597464  0.30035308  0.41197095  1.0
  O  O9224  1  0.14597464  0.46701975  0.41197095  1.0
  O  O9225  1  0.14597464  0.63368641  0.41197095  1.0
  O  O9226  1  0.14597464  0.80035308  0.41197095  1.0
  O  O9227  1  0.14597464  0.96701975  0.41197095  1.0
  O  O9228  1  0.22930798  0.13368641  0.41197095  1.0
  O  O9229  1  0.22930798  0.30035308  0.41197095  1.0
  O  O9230  1  0.22930798  0.46701975  0.41197095  1.0
  O  O9231  1  0.22930798  0.63368641  0.41197095  1.0
  O  O9232  1  0.22930798  0.80035308  0.41197095  1.0
  O  O9233  1  0.22930798  0.96701975  0.41197095  1.0
  O  O9234  1  0.31264131  0.13368641  0.41197095  1.0
  O  O9235  1  0.31264131  0.30035308  0.41197095  1.0
  O  O9236  1  0.31264131  0.46701975  0.41197095  1.0
  O  O9237  1  0.31264131  0.63368641  0.41197095  1.0
  O  O9238  1  0.31264131  0.80035308  0.41197095  1.0
  O  O9239  1  0.31264131  0.96701975  0.41197095  1.0
  O  O9240  1  0.39597464  0.13368641  0.41197095  1.0
  O  O9241  1  0.39597464  0.30035308  0.41197095  1.0
  O  O9242  1  0.39597464  0.46701975  0.41197095  1.0
  O  O9243  1  0.39597464  0.63368641  0.41197095  1.0
  O  O9244  1  0.39597464  0.80035308  0.41197095  1.0
  O  O9245  1  0.39597464  0.96701975  0.41197095  1.0
  O  O9246  1  0.47930798  0.13368641  0.41197095  1.0
  O  O9247  1  0.47930798  0.30035308  0.41197095  1.0
  O  O9248  1  0.47930798  0.46701975  0.41197095  1.0
  O  O9249  1  0.47930798  0.63368641  0.41197095  1.0
  O  O9250  1  0.47930798  0.80035308  0.41197095  1.0
  O  O9251  1  0.47930798  0.96701975  0.41197095  1.0
  O  O9252  1  0.56264131  0.13368641  0.41197095  1.0
  O  O9253  1  0.56264131  0.30035308  0.41197095  1.0
  O  O9254  1  0.56264131  0.46701975  0.41197095  1.0
  O  O9255  1  0.56264131  0.63368641  0.41197095  1.0
  O  O9256  1  0.56264131  0.80035308  0.41197095  1.0
  O  O9257  1  0.56264131  0.96701975  0.41197095  1.0
  O  O9258  1  0.64597464  0.13368641  0.41197095  1.0
  O  O9259  1  0.64597464  0.30035308  0.41197095  1.0
  O  O9260  1  0.64597464  0.46701975  0.41197095  1.0
  O  O9261  1  0.64597464  0.63368641  0.41197095  1.0
  O  O9262  1  0.64597464  0.80035308  0.41197095  1.0
  O  O9263  1  0.64597464  0.96701975  0.41197095  1.0
  O  O9264  1  0.72930798  0.13368641  0.41197095  1.0
  O  O9265  1  0.72930798  0.30035308  0.41197095  1.0
  O  O9266  1  0.72930798  0.46701975  0.41197095  1.0
  O  O9267  1  0.72930798  0.63368641  0.41197095  1.0
  O  O9268  1  0.72930798  0.80035308  0.41197095  1.0
  O  O9269  1  0.72930798  0.96701975  0.41197095  1.0
  O  O9270  1  0.81264131  0.13368641  0.41197095  1.0
  O  O9271  1  0.81264131  0.30035308  0.41197095  1.0
  O  O9272  1  0.81264131  0.46701975  0.41197095  1.0
  O  O9273  1  0.81264131  0.63368641  0.41197095  1.0
  O  O9274  1  0.81264131  0.80035308  0.41197095  1.0
  O  O9275  1  0.81264131  0.96701975  0.41197095  1.0
  O  O9276  1  0.89597464  0.13368641  0.41197095  1.0
  O  O9277  1  0.89597464  0.30035308  0.41197095  1.0
  O  O9278  1  0.89597464  0.46701975  0.41197095  1.0
  O  O9279  1  0.89597464  0.63368641  0.41197095  1.0
  O  O9280  1  0.89597464  0.80035308  0.41197095  1.0
  O  O9281  1  0.89597464  0.96701975  0.41197095  1.0
  O  O9282  1  0.97930798  0.13368641  0.41197095  1.0
  O  O9283  1  0.97930798  0.30035308  0.41197095  1.0
  O  O9284  1  0.97930798  0.46701975  0.41197095  1.0
  O  O9285  1  0.97930798  0.63368641  0.41197095  1.0
  O  O9286  1  0.97930798  0.80035308  0.41197095  1.0
  O  O9287  1  0.97930798  0.96701975  0.41197095  1.0
  O  O9288  1  0.07616112  0.07006658  0.36224142  1.0
  O  O9289  1  0.07616112  0.23673325  0.36224142  1.0
  O  O9290  1  0.07616112  0.40339991  0.36224142  1.0
  O  O9291  1  0.07616112  0.57006658  0.36224142  1.0
  O  O9292  1  0.07616112  0.73673325  0.36224142  1.0
  O  O9293  1  0.07616112  0.90339991  0.36224142  1.0
  O  O9294  1  0.15949445  0.07006658  0.36224142  1.0
  O  O9295  1  0.15949445  0.23673325  0.36224142  1.0
  O  O9296  1  0.15949445  0.40339991  0.36224142  1.0
  O  O9297  1  0.15949445  0.57006658  0.36224142  1.0
  O  O9298  1  0.15949445  0.73673325  0.36224142  1.0
  O  O9299  1  0.15949445  0.90339991  0.36224142  1.0
  O  O9300  1  0.24282778  0.07006658  0.36224142  1.0
  O  O9301  1  0.24282778  0.23673325  0.36224142  1.0
  O  O9302  1  0.24282778  0.40339991  0.36224142  1.0
  O  O9303  1  0.24282778  0.57006658  0.36224142  1.0
  O  O9304  1  0.24282778  0.73673325  0.36224142  1.0
  O  O9305  1  0.24282778  0.90339991  0.36224142  1.0
  O  O9306  1  0.32616112  0.07006658  0.36224142  1.0
  O  O9307  1  0.32616112  0.23673325  0.36224142  1.0
  O  O9308  1  0.32616112  0.40339991  0.36224142  1.0
  O  O9309  1  0.32616112  0.57006658  0.36224142  1.0
  O  O9310  1  0.32616112  0.73673325  0.36224142  1.0
  O  O9311  1  0.32616112  0.90339991  0.36224142  1.0
  O  O9312  1  0.40949445  0.07006658  0.36224142  1.0
  O  O9313  1  0.40949445  0.23673325  0.36224142  1.0
  O  O9314  1  0.40949445  0.40339991  0.36224142  1.0
  O  O9315  1  0.40949445  0.57006658  0.36224142  1.0
  O  O9316  1  0.40949445  0.73673325  0.36224142  1.0
  O  O9317  1  0.40949445  0.90339991  0.36224142  1.0
  O  O9318  1  0.49282778  0.07006658  0.36224142  1.0
  O  O9319  1  0.49282778  0.23673325  0.36224142  1.0
  O  O9320  1  0.49282778  0.40339991  0.36224142  1.0
  O  O9321  1  0.49282778  0.57006658  0.36224142  1.0
  O  O9322  1  0.49282778  0.73673325  0.36224142  1.0
  O  O9323  1  0.49282778  0.90339991  0.36224142  1.0
  O  O9324  1  0.57616112  0.07006658  0.36224142  1.0
  O  O9325  1  0.57616112  0.23673325  0.36224142  1.0
  O  O9326  1  0.57616112  0.40339991  0.36224142  1.0
  O  O9327  1  0.57616112  0.57006658  0.36224142  1.0
  O  O9328  1  0.57616112  0.73673325  0.36224142  1.0
  O  O9329  1  0.57616112  0.90339991  0.36224142  1.0
  O  O9330  1  0.65949445  0.07006658  0.36224142  1.0
  O  O9331  1  0.65949445  0.23673325  0.36224142  1.0
  O  O9332  1  0.65949445  0.40339991  0.36224142  1.0
  O  O9333  1  0.65949445  0.57006658  0.36224142  1.0
  O  O9334  1  0.65949445  0.73673325  0.36224142  1.0
  O  O9335  1  0.65949445  0.90339991  0.36224142  1.0
  O  O9336  1  0.74282778  0.07006658  0.36224142  1.0
  O  O9337  1  0.74282778  0.23673325  0.36224142  1.0
  O  O9338  1  0.74282778  0.40339991  0.36224142  1.0
  O  O9339  1  0.74282778  0.57006658  0.36224142  1.0
  O  O9340  1  0.74282778  0.73673325  0.36224142  1.0
  O  O9341  1  0.74282778  0.90339991  0.36224142  1.0
  O  O9342  1  0.82616112  0.07006658  0.36224142  1.0
  O  O9343  1  0.82616112  0.23673325  0.36224142  1.0
  O  O9344  1  0.82616112  0.40339991  0.36224142  1.0
  O  O9345  1  0.82616112  0.57006658  0.36224142  1.0
  O  O9346  1  0.82616112  0.73673325  0.36224142  1.0
  O  O9347  1  0.82616112  0.90339991  0.36224142  1.0
  O  O9348  1  0.90949445  0.07006658  0.36224142  1.0
  O  O9349  1  0.90949445  0.23673325  0.36224142  1.0
  O  O9350  1  0.90949445  0.40339991  0.36224142  1.0
  O  O9351  1  0.90949445  0.57006658  0.36224142  1.0
  O  O9352  1  0.90949445  0.73673325  0.36224142  1.0
  O  O9353  1  0.90949445  0.90339991  0.36224142  1.0
  O  O9354  1  0.99282778  0.07006658  0.36224142  1.0
  O  O9355  1  0.99282778  0.23673325  0.36224142  1.0
  O  O9356  1  0.99282778  0.40339991  0.36224142  1.0
  O  O9357  1  0.99282778  0.57006658  0.36224142  1.0
  O  O9358  1  0.99282778  0.73673325  0.36224142  1.0
  O  O9359  1  0.99282778  0.90339991  0.36224142  1.0
  O  O9360  1  0.05235159  0.05816182  0.43366999  1.0
  O  O9361  1  0.05235159  0.22482848  0.43366999  1.0
  O  O9362  1  0.05235159  0.39149515  0.43366999  1.0
  O  O9363  1  0.05235159  0.55816182  0.43366999  1.0
  O  O9364  1  0.05235159  0.72482848  0.43366999  1.0
  O  O9365  1  0.05235159  0.89149515  0.43366999  1.0
  O  O9366  1  0.13568493  0.05816182  0.43366999  1.0
  O  O9367  1  0.13568493  0.22482848  0.43366999  1.0
  O  O9368  1  0.13568493  0.39149515  0.43366999  1.0
  O  O9369  1  0.13568493  0.55816182  0.43366999  1.0
  O  O9370  1  0.13568493  0.72482848  0.43366999  1.0
  O  O9371  1  0.13568493  0.89149515  0.43366999  1.0
  O  O9372  1  0.21901826  0.05816182  0.43366999  1.0
  O  O9373  1  0.21901826  0.22482848  0.43366999  1.0
  O  O9374  1  0.21901826  0.39149515  0.43366999  1.0
  O  O9375  1  0.21901826  0.55816182  0.43366999  1.0
  O  O9376  1  0.21901826  0.72482848  0.43366999  1.0
  O  O9377  1  0.21901826  0.89149515  0.43366999  1.0
  O  O9378  1  0.30235159  0.05816182  0.43366999  1.0
  O  O9379  1  0.30235159  0.22482848  0.43366999  1.0
  O  O9380  1  0.30235159  0.39149515  0.43366999  1.0
  O  O9381  1  0.30235159  0.55816182  0.43366999  1.0
  O  O9382  1  0.30235159  0.72482848  0.43366999  1.0
  O  O9383  1  0.30235159  0.89149515  0.43366999  1.0
  O  O9384  1  0.38568493  0.05816182  0.43366999  1.0
  O  O9385  1  0.38568493  0.22482848  0.43366999  1.0
  O  O9386  1  0.38568493  0.39149515  0.43366999  1.0
  O  O9387  1  0.38568493  0.55816182  0.43366999  1.0
  O  O9388  1  0.38568493  0.72482848  0.43366999  1.0
  O  O9389  1  0.38568493  0.89149515  0.43366999  1.0
  O  O9390  1  0.46901826  0.05816182  0.43366999  1.0
  O  O9391  1  0.46901826  0.22482848  0.43366999  1.0
  O  O9392  1  0.46901826  0.39149515  0.43366999  1.0
  O  O9393  1  0.46901826  0.55816182  0.43366999  1.0
  O  O9394  1  0.46901826  0.72482848  0.43366999  1.0
  O  O9395  1  0.46901826  0.89149515  0.43366999  1.0
  O  O9396  1  0.55235159  0.05816182  0.43366999  1.0
  O  O9397  1  0.55235159  0.22482848  0.43366999  1.0
  O  O9398  1  0.55235159  0.39149515  0.43366999  1.0
  O  O9399  1  0.55235159  0.55816182  0.43366999  1.0
  O  O9400  1  0.55235159  0.72482848  0.43366999  1.0
  O  O9401  1  0.55235159  0.89149515  0.43366999  1.0
  O  O9402  1  0.63568493  0.05816182  0.43366999  1.0
  O  O9403  1  0.63568493  0.22482848  0.43366999  1.0
  O  O9404  1  0.63568493  0.39149515  0.43366999  1.0
  O  O9405  1  0.63568493  0.55816182  0.43366999  1.0
  O  O9406  1  0.63568493  0.72482848  0.43366999  1.0
  O  O9407  1  0.63568493  0.89149515  0.43366999  1.0
  O  O9408  1  0.71901826  0.05816182  0.43366999  1.0
  O  O9409  1  0.71901826  0.22482848  0.43366999  1.0
  O  O9410  1  0.71901826  0.39149515  0.43366999  1.0
  O  O9411  1  0.71901826  0.55816182  0.43366999  1.0
  O  O9412  1  0.71901826  0.72482848  0.43366999  1.0
  O  O9413  1  0.71901826  0.89149515  0.43366999  1.0
  O  O9414  1  0.80235159  0.05816182  0.43366999  1.0
  O  O9415  1  0.80235159  0.22482848  0.43366999  1.0
  O  O9416  1  0.80235159  0.39149515  0.43366999  1.0
  O  O9417  1  0.80235159  0.55816182  0.43366999  1.0
  O  O9418  1  0.80235159  0.72482848  0.43366999  1.0
  O  O9419  1  0.80235159  0.89149515  0.43366999  1.0
  O  O9420  1  0.88568493  0.05816182  0.43366999  1.0
  O  O9421  1  0.88568493  0.22482848  0.43366999  1.0
  O  O9422  1  0.88568493  0.39149515  0.43366999  1.0
  O  O9423  1  0.88568493  0.55816182  0.43366999  1.0
  O  O9424  1  0.88568493  0.72482848  0.43366999  1.0
  O  O9425  1  0.88568493  0.89149515  0.43366999  1.0
  O  O9426  1  0.96901826  0.05816182  0.43366999  1.0
  O  O9427  1  0.96901826  0.22482848  0.43366999  1.0
  O  O9428  1  0.96901826  0.39149515  0.43366999  1.0
  O  O9429  1  0.96901826  0.55816182  0.43366999  1.0
  O  O9430  1  0.96901826  0.72482848  0.43366999  1.0
  O  O9431  1  0.96901826  0.89149515  0.43366999  1.0
  O  O9432  1  0.08038929  0.05262854  0.46949164  1.0
  O  O9433  1  0.08038929  0.21929520  0.46949164  1.0
  O  O9434  1  0.08038929  0.38596187  0.46949164  1.0
  O  O9435  1  0.08038929  0.55262854  0.46949164  1.0
  O  O9436  1  0.08038929  0.71929520  0.46949164  1.0
  O  O9437  1  0.08038929  0.88596187  0.46949164  1.0
  O  O9438  1  0.16372263  0.05262854  0.46949164  1.0
  O  O9439  1  0.16372263  0.21929520  0.46949164  1.0
  O  O9440  1  0.16372263  0.38596187  0.46949164  1.0
  O  O9441  1  0.16372263  0.55262854  0.46949164  1.0
  O  O9442  1  0.16372263  0.71929520  0.46949164  1.0
  O  O9443  1  0.16372263  0.88596187  0.46949164  1.0
  O  O9444  1  0.24705596  0.05262854  0.46949164  1.0
  O  O9445  1  0.24705596  0.21929520  0.46949164  1.0
  O  O9446  1  0.24705596  0.38596187  0.46949164  1.0
  O  O9447  1  0.24705596  0.55262854  0.46949164  1.0
  O  O9448  1  0.24705596  0.71929520  0.46949164  1.0
  O  O9449  1  0.24705596  0.88596187  0.46949164  1.0
  O  O9450  1  0.33038929  0.05262854  0.46949164  1.0
  O  O9451  1  0.33038929  0.21929520  0.46949164  1.0
  O  O9452  1  0.33038929  0.38596187  0.46949164  1.0
  O  O9453  1  0.33038929  0.55262854  0.46949164  1.0
  O  O9454  1  0.33038929  0.71929520  0.46949164  1.0
  O  O9455  1  0.33038929  0.88596187  0.46949164  1.0
  O  O9456  1  0.41372263  0.05262854  0.46949164  1.0
  O  O9457  1  0.41372263  0.21929520  0.46949164  1.0
  O  O9458  1  0.41372263  0.38596187  0.46949164  1.0
  O  O9459  1  0.41372263  0.55262854  0.46949164  1.0
  O  O9460  1  0.41372263  0.71929520  0.46949164  1.0
  O  O9461  1  0.41372263  0.88596187  0.46949164  1.0
  O  O9462  1  0.49705596  0.05262854  0.46949164  1.0
  O  O9463  1  0.49705596  0.21929520  0.46949164  1.0
  O  O9464  1  0.49705596  0.38596187  0.46949164  1.0
  O  O9465  1  0.49705596  0.55262854  0.46949164  1.0
  O  O9466  1  0.49705596  0.71929520  0.46949164  1.0
  O  O9467  1  0.49705596  0.88596187  0.46949164  1.0
  O  O9468  1  0.58038929  0.05262854  0.46949164  1.0
  O  O9469  1  0.58038929  0.21929520  0.46949164  1.0
  O  O9470  1  0.58038929  0.38596187  0.46949164  1.0
  O  O9471  1  0.58038929  0.55262854  0.46949164  1.0
  O  O9472  1  0.58038929  0.71929520  0.46949164  1.0
  O  O9473  1  0.58038929  0.88596187  0.46949164  1.0
  O  O9474  1  0.66372263  0.05262854  0.46949164  1.0
  O  O9475  1  0.66372263  0.21929520  0.46949164  1.0
  O  O9476  1  0.66372263  0.38596187  0.46949164  1.0
  O  O9477  1  0.66372263  0.55262854  0.46949164  1.0
  O  O9478  1  0.66372263  0.71929520  0.46949164  1.0
  O  O9479  1  0.66372263  0.88596187  0.46949164  1.0
  O  O9480  1  0.74705596  0.05262854  0.46949164  1.0
  O  O9481  1  0.74705596  0.21929520  0.46949164  1.0
  O  O9482  1  0.74705596  0.38596187  0.46949164  1.0
  O  O9483  1  0.74705596  0.55262854  0.46949164  1.0
  O  O9484  1  0.74705596  0.71929520  0.46949164  1.0
  O  O9485  1  0.74705596  0.88596187  0.46949164  1.0
  O  O9486  1  0.83038929  0.05262854  0.46949164  1.0
  O  O9487  1  0.83038929  0.21929520  0.46949164  1.0
  O  O9488  1  0.83038929  0.38596187  0.46949164  1.0
  O  O9489  1  0.83038929  0.55262854  0.46949164  1.0
  O  O9490  1  0.83038929  0.71929520  0.46949164  1.0
  O  O9491  1  0.83038929  0.88596187  0.46949164  1.0
  O  O9492  1  0.91372263  0.05262854  0.46949164  1.0
  O  O9493  1  0.91372263  0.21929520  0.46949164  1.0
  O  O9494  1  0.91372263  0.38596187  0.46949164  1.0
  O  O9495  1  0.91372263  0.55262854  0.46949164  1.0
  O  O9496  1  0.91372263  0.71929520  0.46949164  1.0
  O  O9497  1  0.91372263  0.88596187  0.46949164  1.0
  O  O9498  1  0.99705596  0.05262854  0.46949164  1.0
  O  O9499  1  0.99705596  0.21929520  0.46949164  1.0
  O  O9500  1  0.99705596  0.38596187  0.46949164  1.0
  O  O9501  1  0.99705596  0.55262854  0.46949164  1.0
  O  O9502  1  0.99705596  0.71929520  0.46949164  1.0
  O  O9503  1  0.99705596  0.88596187  0.46949164  1.0
  O  O9504  1  0.02086548  0.06453330  0.39806307  1.0
  O  O9505  1  0.02086548  0.23119997  0.39806307  1.0
  O  O9506  1  0.02086548  0.39786663  0.39806307  1.0
  O  O9507  1  0.02086548  0.56453330  0.39806307  1.0
  O  O9508  1  0.02086548  0.73119997  0.39806307  1.0
  O  O9509  1  0.02086548  0.89786663  0.39806307  1.0
  O  O9510  1  0.10419882  0.06453330  0.39806307  1.0
  O  O9511  1  0.10419882  0.23119997  0.39806307  1.0
  O  O9512  1  0.10419882  0.39786663  0.39806307  1.0
  O  O9513  1  0.10419882  0.56453330  0.39806307  1.0
  O  O9514  1  0.10419882  0.73119997  0.39806307  1.0
  O  O9515  1  0.10419882  0.89786663  0.39806307  1.0
  O  O9516  1  0.18753215  0.06453330  0.39806307  1.0
  O  O9517  1  0.18753215  0.23119997  0.39806307  1.0
  O  O9518  1  0.18753215  0.39786663  0.39806307  1.0
  O  O9519  1  0.18753215  0.56453330  0.39806307  1.0
  O  O9520  1  0.18753215  0.73119997  0.39806307  1.0
  O  O9521  1  0.18753215  0.89786663  0.39806307  1.0
  O  O9522  1  0.27086548  0.06453330  0.39806307  1.0
  O  O9523  1  0.27086548  0.23119997  0.39806307  1.0
  O  O9524  1  0.27086548  0.39786663  0.39806307  1.0
  O  O9525  1  0.27086548  0.56453330  0.39806307  1.0
  O  O9526  1  0.27086548  0.73119997  0.39806307  1.0
  O  O9527  1  0.27086548  0.89786663  0.39806307  1.0
  O  O9528  1  0.35419882  0.06453330  0.39806307  1.0
  O  O9529  1  0.35419882  0.23119997  0.39806307  1.0
  O  O9530  1  0.35419882  0.39786663  0.39806307  1.0
  O  O9531  1  0.35419882  0.56453330  0.39806307  1.0
  O  O9532  1  0.35419882  0.73119997  0.39806307  1.0
  O  O9533  1  0.35419882  0.89786663  0.39806307  1.0
  O  O9534  1  0.43753215  0.06453330  0.39806307  1.0
  O  O9535  1  0.43753215  0.23119997  0.39806307  1.0
  O  O9536  1  0.43753215  0.39786663  0.39806307  1.0
  O  O9537  1  0.43753215  0.56453330  0.39806307  1.0
  O  O9538  1  0.43753215  0.73119997  0.39806307  1.0
  O  O9539  1  0.43753215  0.89786663  0.39806307  1.0
  O  O9540  1  0.52086548  0.06453330  0.39806307  1.0
  O  O9541  1  0.52086548  0.23119997  0.39806307  1.0
  O  O9542  1  0.52086548  0.39786663  0.39806307  1.0
  O  O9543  1  0.52086548  0.56453330  0.39806307  1.0
  O  O9544  1  0.52086548  0.73119997  0.39806307  1.0
  O  O9545  1  0.52086548  0.89786663  0.39806307  1.0
  O  O9546  1  0.60419882  0.06453330  0.39806307  1.0
  O  O9547  1  0.60419882  0.23119997  0.39806307  1.0
  O  O9548  1  0.60419882  0.39786663  0.39806307  1.0
  O  O9549  1  0.60419882  0.56453330  0.39806307  1.0
  O  O9550  1  0.60419882  0.73119997  0.39806307  1.0
  O  O9551  1  0.60419882  0.89786663  0.39806307  1.0
  O  O9552  1  0.68753215  0.06453330  0.39806307  1.0
  O  O9553  1  0.68753215  0.23119997  0.39806307  1.0
  O  O9554  1  0.68753215  0.39786663  0.39806307  1.0
  O  O9555  1  0.68753215  0.56453330  0.39806307  1.0
  O  O9556  1  0.68753215  0.73119997  0.39806307  1.0
  O  O9557  1  0.68753215  0.89786663  0.39806307  1.0
  O  O9558  1  0.77086548  0.06453330  0.39806307  1.0
  O  O9559  1  0.77086548  0.23119997  0.39806307  1.0
  O  O9560  1  0.77086548  0.39786663  0.39806307  1.0
  O  O9561  1  0.77086548  0.56453330  0.39806307  1.0
  O  O9562  1  0.77086548  0.73119997  0.39806307  1.0
  O  O9563  1  0.77086548  0.89786663  0.39806307  1.0
  O  O9564  1  0.85419882  0.06453330  0.39806307  1.0
  O  O9565  1  0.85419882  0.23119997  0.39806307  1.0
  O  O9566  1  0.85419882  0.39786663  0.39806307  1.0
  O  O9567  1  0.85419882  0.56453330  0.39806307  1.0
  O  O9568  1  0.85419882  0.73119997  0.39806307  1.0
  O  O9569  1  0.85419882  0.89786663  0.39806307  1.0
  O  O9570  1  0.93753215  0.06453330  0.39806307  1.0
  O  O9571  1  0.93753215  0.23119997  0.39806307  1.0
  O  O9572  1  0.93753215  0.39786663  0.39806307  1.0
  O  O9573  1  0.93753215  0.56453330  0.39806307  1.0
  O  O9574  1  0.93753215  0.73119997  0.39806307  1.0
  O  O9575  1  0.93753215  0.89786663  0.39806307  1.0
  O  O9576  1  0.07281129  0.11600769  0.37061878  1.0
  O  O9577  1  0.07281129  0.28267436  0.37061878  1.0
  O  O9578  1  0.07281129  0.44934102  0.37061878  1.0
  O  O9579  1  0.07281129  0.61600769  0.37061878  1.0
  O  O9580  1  0.07281129  0.78267436  0.37061878  1.0
  O  O9581  1  0.07281129  0.94934102  0.37061878  1.0
  O  O9582  1  0.15614462  0.11600769  0.37061878  1.0
  O  O9583  1  0.15614462  0.28267436  0.37061878  1.0
  O  O9584  1  0.15614462  0.44934102  0.37061878  1.0
  O  O9585  1  0.15614462  0.61600769  0.37061878  1.0
  O  O9586  1  0.15614462  0.78267436  0.37061878  1.0
  O  O9587  1  0.15614462  0.94934102  0.37061878  1.0
  O  O9588  1  0.23947796  0.11600769  0.37061878  1.0
  O  O9589  1  0.23947796  0.28267436  0.37061878  1.0
  O  O9590  1  0.23947796  0.44934102  0.37061878  1.0
  O  O9591  1  0.23947796  0.61600769  0.37061878  1.0
  O  O9592  1  0.23947796  0.78267436  0.37061878  1.0
  O  O9593  1  0.23947796  0.94934102  0.37061878  1.0
  O  O9594  1  0.32281129  0.11600769  0.37061878  1.0
  O  O9595  1  0.32281129  0.28267436  0.37061878  1.0
  O  O9596  1  0.32281129  0.44934102  0.37061878  1.0
  O  O9597  1  0.32281129  0.61600769  0.37061878  1.0
  O  O9598  1  0.32281129  0.78267436  0.37061878  1.0
  O  O9599  1  0.32281129  0.94934102  0.37061878  1.0
  O  O9600  1  0.40614462  0.11600769  0.37061878  1.0
  O  O9601  1  0.40614462  0.28267436  0.37061878  1.0
  O  O9602  1  0.40614462  0.44934102  0.37061878  1.0
  O  O9603  1  0.40614462  0.61600769  0.37061878  1.0
  O  O9604  1  0.40614462  0.78267436  0.37061878  1.0
  O  O9605  1  0.40614462  0.94934102  0.37061878  1.0
  O  O9606  1  0.48947796  0.11600769  0.37061878  1.0
  O  O9607  1  0.48947796  0.28267436  0.37061878  1.0
  O  O9608  1  0.48947796  0.44934102  0.37061878  1.0
  O  O9609  1  0.48947796  0.61600769  0.37061878  1.0
  O  O9610  1  0.48947796  0.78267436  0.37061878  1.0
  O  O9611  1  0.48947796  0.94934102  0.37061878  1.0
  O  O9612  1  0.57281129  0.11600769  0.37061878  1.0
  O  O9613  1  0.57281129  0.28267436  0.37061878  1.0
  O  O9614  1  0.57281129  0.44934102  0.37061878  1.0
  O  O9615  1  0.57281129  0.61600769  0.37061878  1.0
  O  O9616  1  0.57281129  0.78267436  0.37061878  1.0
  O  O9617  1  0.57281129  0.94934102  0.37061878  1.0
  O  O9618  1  0.65614462  0.11600769  0.37061878  1.0
  O  O9619  1  0.65614462  0.28267436  0.37061878  1.0
  O  O9620  1  0.65614462  0.44934102  0.37061878  1.0
  O  O9621  1  0.65614462  0.61600769  0.37061878  1.0
  O  O9622  1  0.65614462  0.78267436  0.37061878  1.0
  O  O9623  1  0.65614462  0.94934102  0.37061878  1.0
  O  O9624  1  0.73947796  0.11600769  0.37061878  1.0
  O  O9625  1  0.73947796  0.28267436  0.37061878  1.0
  O  O9626  1  0.73947796  0.44934102  0.37061878  1.0
  O  O9627  1  0.73947796  0.61600769  0.37061878  1.0
  O  O9628  1  0.73947796  0.78267436  0.37061878  1.0
  O  O9629  1  0.73947796  0.94934102  0.37061878  1.0
  O  O9630  1  0.82281129  0.11600769  0.37061878  1.0
  O  O9631  1  0.82281129  0.28267436  0.37061878  1.0
  O  O9632  1  0.82281129  0.44934102  0.37061878  1.0
  O  O9633  1  0.82281129  0.61600769  0.37061878  1.0
  O  O9634  1  0.82281129  0.78267436  0.37061878  1.0
  O  O9635  1  0.82281129  0.94934102  0.37061878  1.0
  O  O9636  1  0.90614462  0.11600769  0.37061878  1.0
  O  O9637  1  0.90614462  0.28267436  0.37061878  1.0
  O  O9638  1  0.90614462  0.44934102  0.37061878  1.0
  O  O9639  1  0.90614462  0.61600769  0.37061878  1.0
  O  O9640  1  0.90614462  0.78267436  0.37061878  1.0
  O  O9641  1  0.90614462  0.94934102  0.37061878  1.0
  O  O9642  1  0.98947796  0.11600769  0.37061878  1.0
  O  O9643  1  0.98947796  0.28267436  0.37061878  1.0
  O  O9644  1  0.98947796  0.44934102  0.37061878  1.0
  O  O9645  1  0.98947796  0.61600769  0.37061878  1.0
  O  O9646  1  0.98947796  0.78267436  0.37061878  1.0
  O  O9647  1  0.98947796  0.94934102  0.37061878  1.0
  O  O9648  1  0.04900177  0.10410293  0.44204735  1.0
  O  O9649  1  0.04900177  0.27076960  0.44204735  1.0
  O  O9650  1  0.04900177  0.43743626  0.44204735  1.0
  O  O9651  1  0.04900177  0.60410293  0.44204735  1.0
  O  O9652  1  0.04900177  0.77076960  0.44204735  1.0
  O  O9653  1  0.04900177  0.93743626  0.44204735  1.0
  O  O9654  1  0.13233510  0.10410293  0.44204735  1.0
  O  O9655  1  0.13233510  0.27076960  0.44204735  1.0
  O  O9656  1  0.13233510  0.43743626  0.44204735  1.0
  O  O9657  1  0.13233510  0.60410293  0.44204735  1.0
  O  O9658  1  0.13233510  0.77076960  0.44204735  1.0
  O  O9659  1  0.13233510  0.93743626  0.44204735  1.0
  O  O9660  1  0.21566843  0.10410293  0.44204735  1.0
  O  O9661  1  0.21566843  0.27076960  0.44204735  1.0
  O  O9662  1  0.21566843  0.43743626  0.44204735  1.0
  O  O9663  1  0.21566843  0.60410293  0.44204735  1.0
  O  O9664  1  0.21566843  0.77076960  0.44204735  1.0
  O  O9665  1  0.21566843  0.93743626  0.44204735  1.0
  O  O9666  1  0.29900177  0.10410293  0.44204735  1.0
  O  O9667  1  0.29900177  0.27076960  0.44204735  1.0
  O  O9668  1  0.29900177  0.43743626  0.44204735  1.0
  O  O9669  1  0.29900177  0.60410293  0.44204735  1.0
  O  O9670  1  0.29900177  0.77076960  0.44204735  1.0
  O  O9671  1  0.29900177  0.93743626  0.44204735  1.0
  O  O9672  1  0.38233510  0.10410293  0.44204735  1.0
  O  O9673  1  0.38233510  0.27076960  0.44204735  1.0
  O  O9674  1  0.38233510  0.43743626  0.44204735  1.0
  O  O9675  1  0.38233510  0.60410293  0.44204735  1.0
  O  O9676  1  0.38233510  0.77076960  0.44204735  1.0
  O  O9677  1  0.38233510  0.93743626  0.44204735  1.0
  O  O9678  1  0.46566843  0.10410293  0.44204735  1.0
  O  O9679  1  0.46566843  0.27076960  0.44204735  1.0
  O  O9680  1  0.46566843  0.43743626  0.44204735  1.0
  O  O9681  1  0.46566843  0.60410293  0.44204735  1.0
  O  O9682  1  0.46566843  0.77076960  0.44204735  1.0
  O  O9683  1  0.46566843  0.93743626  0.44204735  1.0
  O  O9684  1  0.54900177  0.10410293  0.44204735  1.0
  O  O9685  1  0.54900177  0.27076960  0.44204735  1.0
  O  O9686  1  0.54900177  0.43743626  0.44204735  1.0
  O  O9687  1  0.54900177  0.60410293  0.44204735  1.0
  O  O9688  1  0.54900177  0.77076960  0.44204735  1.0
  O  O9689  1  0.54900177  0.93743626  0.44204735  1.0
  O  O9690  1  0.63233510  0.10410293  0.44204735  1.0
  O  O9691  1  0.63233510  0.27076960  0.44204735  1.0
  O  O9692  1  0.63233510  0.43743626  0.44204735  1.0
  O  O9693  1  0.63233510  0.60410293  0.44204735  1.0
  O  O9694  1  0.63233510  0.77076960  0.44204735  1.0
  O  O9695  1  0.63233510  0.93743626  0.44204735  1.0
  O  O9696  1  0.71566843  0.10410293  0.44204735  1.0
  O  O9697  1  0.71566843  0.27076960  0.44204735  1.0
  O  O9698  1  0.71566843  0.43743626  0.44204735  1.0
  O  O9699  1  0.71566843  0.60410293  0.44204735  1.0
  O  O9700  1  0.71566843  0.77076960  0.44204735  1.0
  O  O9701  1  0.71566843  0.93743626  0.44204735  1.0
  O  O9702  1  0.79900177  0.10410293  0.44204735  1.0
  O  O9703  1  0.79900177  0.27076960  0.44204735  1.0
  O  O9704  1  0.79900177  0.43743626  0.44204735  1.0
  O  O9705  1  0.79900177  0.60410293  0.44204735  1.0
  O  O9706  1  0.79900177  0.77076960  0.44204735  1.0
  O  O9707  1  0.79900177  0.93743626  0.44204735  1.0
  O  O9708  1  0.88233510  0.10410293  0.44204735  1.0
  O  O9709  1  0.88233510  0.27076960  0.44204735  1.0
  O  O9710  1  0.88233510  0.43743626  0.44204735  1.0
  O  O9711  1  0.88233510  0.60410293  0.44204735  1.0
  O  O9712  1  0.88233510  0.77076960  0.44204735  1.0
  O  O9713  1  0.88233510  0.93743626  0.44204735  1.0
  O  O9714  1  0.96566843  0.10410293  0.44204735  1.0
  O  O9715  1  0.96566843  0.27076960  0.44204735  1.0
  O  O9716  1  0.96566843  0.43743626  0.44204735  1.0
  O  O9717  1  0.96566843  0.60410293  0.44204735  1.0
  O  O9718  1  0.96566843  0.77076960  0.44204735  1.0
  O  O9719  1  0.96566843  0.93743626  0.44204735  1.0
  O  O9720  1  0.03933087  0.07487868  0.47287813  1.0
  O  O9721  1  0.03933087  0.24154535  0.47287813  1.0
  O  O9722  1  0.03933087  0.40821201  0.47287813  1.0
  O  O9723  1  0.03933087  0.57487868  0.47287813  1.0
  O  O9724  1  0.03933087  0.74154535  0.47287813  1.0
  O  O9725  1  0.03933087  0.90821201  0.47287813  1.0
  O  O9726  1  0.12266420  0.07487868  0.47287813  1.0
  O  O9727  1  0.12266420  0.24154535  0.47287813  1.0
  O  O9728  1  0.12266420  0.40821201  0.47287813  1.0
  O  O9729  1  0.12266420  0.57487868  0.47287813  1.0
  O  O9730  1  0.12266420  0.74154535  0.47287813  1.0
  O  O9731  1  0.12266420  0.90821201  0.47287813  1.0
  O  O9732  1  0.20599753  0.07487868  0.47287813  1.0
  O  O9733  1  0.20599753  0.24154535  0.47287813  1.0
  O  O9734  1  0.20599753  0.40821201  0.47287813  1.0
  O  O9735  1  0.20599753  0.57487868  0.47287813  1.0
  O  O9736  1  0.20599753  0.74154535  0.47287813  1.0
  O  O9737  1  0.20599753  0.90821201  0.47287813  1.0
  O  O9738  1  0.28933087  0.07487868  0.47287813  1.0
  O  O9739  1  0.28933087  0.24154535  0.47287813  1.0
  O  O9740  1  0.28933087  0.40821201  0.47287813  1.0
  O  O9741  1  0.28933087  0.57487868  0.47287813  1.0
  O  O9742  1  0.28933087  0.74154535  0.47287813  1.0
  O  O9743  1  0.28933087  0.90821201  0.47287813  1.0
  O  O9744  1  0.37266420  0.07487868  0.47287813  1.0
  O  O9745  1  0.37266420  0.24154535  0.47287813  1.0
  O  O9746  1  0.37266420  0.40821201  0.47287813  1.0
  O  O9747  1  0.37266420  0.57487868  0.47287813  1.0
  O  O9748  1  0.37266420  0.74154535  0.47287813  1.0
  O  O9749  1  0.37266420  0.90821201  0.47287813  1.0
  O  O9750  1  0.45599753  0.07487868  0.47287813  1.0
  O  O9751  1  0.45599753  0.24154535  0.47287813  1.0
  O  O9752  1  0.45599753  0.40821201  0.47287813  1.0
  O  O9753  1  0.45599753  0.57487868  0.47287813  1.0
  O  O9754  1  0.45599753  0.74154535  0.47287813  1.0
  O  O9755  1  0.45599753  0.90821201  0.47287813  1.0
  O  O9756  1  0.53933087  0.07487868  0.47287813  1.0
  O  O9757  1  0.53933087  0.24154535  0.47287813  1.0
  O  O9758  1  0.53933087  0.40821201  0.47287813  1.0
  O  O9759  1  0.53933087  0.57487868  0.47287813  1.0
  O  O9760  1  0.53933087  0.74154535  0.47287813  1.0
  O  O9761  1  0.53933087  0.90821201  0.47287813  1.0
  O  O9762  1  0.62266420  0.07487868  0.47287813  1.0
  O  O9763  1  0.62266420  0.24154535  0.47287813  1.0
  O  O9764  1  0.62266420  0.40821201  0.47287813  1.0
  O  O9765  1  0.62266420  0.57487868  0.47287813  1.0
  O  O9766  1  0.62266420  0.74154535  0.47287813  1.0
  O  O9767  1  0.62266420  0.90821201  0.47287813  1.0
  O  O9768  1  0.70599753  0.07487868  0.47287813  1.0
  O  O9769  1  0.70599753  0.24154535  0.47287813  1.0
  O  O9770  1  0.70599753  0.40821201  0.47287813  1.0
  O  O9771  1  0.70599753  0.57487868  0.47287813  1.0
  O  O9772  1  0.70599753  0.74154535  0.47287813  1.0
  O  O9773  1  0.70599753  0.90821201  0.47287813  1.0
  O  O9774  1  0.78933087  0.07487868  0.47287813  1.0
  O  O9775  1  0.78933087  0.24154535  0.47287813  1.0
  O  O9776  1  0.78933087  0.40821201  0.47287813  1.0
  O  O9777  1  0.78933087  0.57487868  0.47287813  1.0
  O  O9778  1  0.78933087  0.74154535  0.47287813  1.0
  O  O9779  1  0.78933087  0.90821201  0.47287813  1.0
  O  O9780  1  0.87266420  0.07487868  0.47287813  1.0
  O  O9781  1  0.87266420  0.24154535  0.47287813  1.0
  O  O9782  1  0.87266420  0.40821201  0.47287813  1.0
  O  O9783  1  0.87266420  0.57487868  0.47287813  1.0
  O  O9784  1  0.87266420  0.74154535  0.47287813  1.0
  O  O9785  1  0.87266420  0.90821201  0.47287813  1.0
  O  O9786  1  0.95599753  0.07487868  0.47287813  1.0
  O  O9787  1  0.95599753  0.24154535  0.47287813  1.0
  O  O9788  1  0.95599753  0.40821201  0.47287813  1.0
  O  O9789  1  0.95599753  0.57487868  0.47287813  1.0
  O  O9790  1  0.95599753  0.74154535  0.47287813  1.0
  O  O9791  1  0.95599753  0.90821201  0.47287813  1.0
  O  O9792  1  0.06314039  0.08678344  0.40144956  1.0
  O  O9793  1  0.06314039  0.25345011  0.40144956  1.0
  O  O9794  1  0.06314039  0.42011678  0.40144956  1.0
  O  O9795  1  0.06314039  0.58678344  0.40144956  1.0
  O  O9796  1  0.06314039  0.75345011  0.40144956  1.0
  O  O9797  1  0.06314039  0.92011678  0.40144956  1.0
  O  O9798  1  0.14647372  0.08678344  0.40144956  1.0
  O  O9799  1  0.14647372  0.25345011  0.40144956  1.0
  O  O9800  1  0.14647372  0.42011678  0.40144956  1.0
  O  O9801  1  0.14647372  0.58678344  0.40144956  1.0
  O  O9802  1  0.14647372  0.75345011  0.40144956  1.0
  O  O9803  1  0.14647372  0.92011678  0.40144956  1.0
  O  O9804  1  0.22980706  0.08678344  0.40144956  1.0
  O  O9805  1  0.22980706  0.25345011  0.40144956  1.0
  O  O9806  1  0.22980706  0.42011678  0.40144956  1.0
  O  O9807  1  0.22980706  0.58678344  0.40144956  1.0
  O  O9808  1  0.22980706  0.75345011  0.40144956  1.0
  O  O9809  1  0.22980706  0.92011678  0.40144956  1.0
  O  O9810  1  0.31314039  0.08678344  0.40144956  1.0
  O  O9811  1  0.31314039  0.25345011  0.40144956  1.0
  O  O9812  1  0.31314039  0.42011678  0.40144956  1.0
  O  O9813  1  0.31314039  0.58678344  0.40144956  1.0
  O  O9814  1  0.31314039  0.75345011  0.40144956  1.0
  O  O9815  1  0.31314039  0.92011678  0.40144956  1.0
  O  O9816  1  0.39647372  0.08678344  0.40144956  1.0
  O  O9817  1  0.39647372  0.25345011  0.40144956  1.0
  O  O9818  1  0.39647372  0.42011678  0.40144956  1.0
  O  O9819  1  0.39647372  0.58678344  0.40144956  1.0
  O  O9820  1  0.39647372  0.75345011  0.40144956  1.0
  O  O9821  1  0.39647372  0.92011678  0.40144956  1.0
  O  O9822  1  0.47980706  0.08678344  0.40144956  1.0
  O  O9823  1  0.47980706  0.25345011  0.40144956  1.0
  O  O9824  1  0.47980706  0.42011678  0.40144956  1.0
  O  O9825  1  0.47980706  0.58678344  0.40144956  1.0
  O  O9826  1  0.47980706  0.75345011  0.40144956  1.0
  O  O9827  1  0.47980706  0.92011678  0.40144956  1.0
  O  O9828  1  0.56314039  0.08678344  0.40144956  1.0
  O  O9829  1  0.56314039  0.25345011  0.40144956  1.0
  O  O9830  1  0.56314039  0.42011678  0.40144956  1.0
  O  O9831  1  0.56314039  0.58678344  0.40144956  1.0
  O  O9832  1  0.56314039  0.75345011  0.40144956  1.0
  O  O9833  1  0.56314039  0.92011678  0.40144956  1.0
  O  O9834  1  0.64647372  0.08678344  0.40144956  1.0
  O  O9835  1  0.64647372  0.25345011  0.40144956  1.0
  O  O9836  1  0.64647372  0.42011678  0.40144956  1.0
  O  O9837  1  0.64647372  0.58678344  0.40144956  1.0
  O  O9838  1  0.64647372  0.75345011  0.40144956  1.0
  O  O9839  1  0.64647372  0.92011678  0.40144956  1.0
  O  O9840  1  0.72980706  0.08678344  0.40144956  1.0
  O  O9841  1  0.72980706  0.25345011  0.40144956  1.0
  O  O9842  1  0.72980706  0.42011678  0.40144956  1.0
  O  O9843  1  0.72980706  0.58678344  0.40144956  1.0
  O  O9844  1  0.72980706  0.75345011  0.40144956  1.0
  O  O9845  1  0.72980706  0.92011678  0.40144956  1.0
  O  O9846  1  0.81314039  0.08678344  0.40144956  1.0
  O  O9847  1  0.81314039  0.25345011  0.40144956  1.0
  O  O9848  1  0.81314039  0.42011678  0.40144956  1.0
  O  O9849  1  0.81314039  0.58678344  0.40144956  1.0
  O  O9850  1  0.81314039  0.75345011  0.40144956  1.0
  O  O9851  1  0.81314039  0.92011678  0.40144956  1.0
  O  O9852  1  0.89647372  0.08678344  0.40144956  1.0
  O  O9853  1  0.89647372  0.25345011  0.40144956  1.0
  O  O9854  1  0.89647372  0.42011678  0.40144956  1.0
  O  O9855  1  0.89647372  0.58678344  0.40144956  1.0
  O  O9856  1  0.89647372  0.75345011  0.40144956  1.0
  O  O9857  1  0.89647372  0.92011678  0.40144956  1.0
  O  O9858  1  0.97980706  0.08678344  0.40144956  1.0
  O  O9859  1  0.97980706  0.25345011  0.40144956  1.0
  O  O9860  1  0.97980706  0.42011678  0.40144956  1.0
  O  O9861  1  0.97980706  0.58678344  0.40144956  1.0
  O  O9862  1  0.97980706  0.75345011  0.40144956  1.0
  O  O9863  1  0.97980706  0.92011678  0.40144956  1.0
  O  O9864  1  0.06260554  0.16111859  0.52997103  1.0
  O  O9865  1  0.06260554  0.32778525  0.52997103  1.0
  O  O9866  1  0.06260554  0.49445192  0.52997103  1.0
  O  O9867  1  0.06260554  0.66111859  0.52997103  1.0
  O  O9868  1  0.06260554  0.82778525  0.52997103  1.0
  O  O9869  1  0.06260554  0.99445192  0.52997103  1.0
  O  O9870  1  0.14593887  0.16111859  0.52997103  1.0
  O  O9871  1  0.14593887  0.32778525  0.52997103  1.0
  O  O9872  1  0.14593887  0.49445192  0.52997103  1.0
  O  O9873  1  0.14593887  0.66111859  0.52997103  1.0
  O  O9874  1  0.14593887  0.82778525  0.52997103  1.0
  O  O9875  1  0.14593887  0.99445192  0.52997103  1.0
  O  O9876  1  0.22927221  0.16111859  0.52997103  1.0
  O  O9877  1  0.22927221  0.32778525  0.52997103  1.0
  O  O9878  1  0.22927221  0.49445192  0.52997103  1.0
  O  O9879  1  0.22927221  0.66111859  0.52997103  1.0
  O  O9880  1  0.22927221  0.82778525  0.52997103  1.0
  O  O9881  1  0.22927221  0.99445192  0.52997103  1.0
  O  O9882  1  0.31260554  0.16111859  0.52997103  1.0
  O  O9883  1  0.31260554  0.32778525  0.52997103  1.0
  O  O9884  1  0.31260554  0.49445192  0.52997103  1.0
  O  O9885  1  0.31260554  0.66111859  0.52997103  1.0
  O  O9886  1  0.31260554  0.82778525  0.52997103  1.0
  O  O9887  1  0.31260554  0.99445192  0.52997103  1.0
  O  O9888  1  0.39593887  0.16111859  0.52997103  1.0
  O  O9889  1  0.39593887  0.32778525  0.52997103  1.0
  O  O9890  1  0.39593887  0.49445192  0.52997103  1.0
  O  O9891  1  0.39593887  0.66111859  0.52997103  1.0
  O  O9892  1  0.39593887  0.82778525  0.52997103  1.0
  O  O9893  1  0.39593887  0.99445192  0.52997103  1.0
  O  O9894  1  0.47927221  0.16111859  0.52997103  1.0
  O  O9895  1  0.47927221  0.32778525  0.52997103  1.0
  O  O9896  1  0.47927221  0.49445192  0.52997103  1.0
  O  O9897  1  0.47927221  0.66111859  0.52997103  1.0
  O  O9898  1  0.47927221  0.82778525  0.52997103  1.0
  O  O9899  1  0.47927221  0.99445192  0.52997103  1.0
  O  O9900  1  0.56260554  0.16111859  0.52997103  1.0
  O  O9901  1  0.56260554  0.32778525  0.52997103  1.0
  O  O9902  1  0.56260554  0.49445192  0.52997103  1.0
  O  O9903  1  0.56260554  0.66111859  0.52997103  1.0
  O  O9904  1  0.56260554  0.82778525  0.52997103  1.0
  O  O9905  1  0.56260554  0.99445192  0.52997103  1.0
  O  O9906  1  0.64593887  0.16111859  0.52997103  1.0
  O  O9907  1  0.64593887  0.32778525  0.52997103  1.0
  O  O9908  1  0.64593887  0.49445192  0.52997103  1.0
  O  O9909  1  0.64593887  0.66111859  0.52997103  1.0
  O  O9910  1  0.64593887  0.82778525  0.52997103  1.0
  O  O9911  1  0.64593887  0.99445192  0.52997103  1.0
  O  O9912  1  0.72927221  0.16111859  0.52997103  1.0
  O  O9913  1  0.72927221  0.32778525  0.52997103  1.0
  O  O9914  1  0.72927221  0.49445192  0.52997103  1.0
  O  O9915  1  0.72927221  0.66111859  0.52997103  1.0
  O  O9916  1  0.72927221  0.82778525  0.52997103  1.0
  O  O9917  1  0.72927221  0.99445192  0.52997103  1.0
  O  O9918  1  0.81260554  0.16111859  0.52997103  1.0
  O  O9919  1  0.81260554  0.32778525  0.52997103  1.0
  O  O9920  1  0.81260554  0.49445192  0.52997103  1.0
  O  O9921  1  0.81260554  0.66111859  0.52997103  1.0
  O  O9922  1  0.81260554  0.82778525  0.52997103  1.0
  O  O9923  1  0.81260554  0.99445192  0.52997103  1.0
  O  O9924  1  0.89593887  0.16111859  0.52997103  1.0
  O  O9925  1  0.89593887  0.32778525  0.52997103  1.0
  O  O9926  1  0.89593887  0.49445192  0.52997103  1.0
  O  O9927  1  0.89593887  0.66111859  0.52997103  1.0
  O  O9928  1  0.89593887  0.82778525  0.52997103  1.0
  O  O9929  1  0.89593887  0.99445192  0.52997103  1.0
  O  O9930  1  0.97927221  0.16111859  0.52997103  1.0
  O  O9931  1  0.97927221  0.32778525  0.52997103  1.0
  O  O9932  1  0.97927221  0.49445192  0.52997103  1.0
  O  O9933  1  0.97927221  0.66111859  0.52997103  1.0
  O  O9934  1  0.97927221  0.82778525  0.52997103  1.0
  O  O9935  1  0.97927221  0.99445192  0.52997103  1.0
  O  O9936  1  0.03879602  0.14921382  0.60139960  1.0
  O  O9937  1  0.03879602  0.31588049  0.60139960  1.0
  O  O9938  1  0.03879602  0.48254716  0.60139960  1.0
  O  O9939  1  0.03879602  0.64921382  0.60139960  1.0
  O  O9940  1  0.03879602  0.81588049  0.60139960  1.0
  O  O9941  1  0.03879602  0.98254716  0.60139960  1.0
  O  O9942  1  0.12212935  0.14921382  0.60139960  1.0
  O  O9943  1  0.12212935  0.31588049  0.60139960  1.0
  O  O9944  1  0.12212935  0.48254716  0.60139960  1.0
  O  O9945  1  0.12212935  0.64921382  0.60139960  1.0
  O  O9946  1  0.12212935  0.81588049  0.60139960  1.0
  O  O9947  1  0.12212935  0.98254716  0.60139960  1.0
  O  O9948  1  0.20546268  0.14921382  0.60139960  1.0
  O  O9949  1  0.20546268  0.31588049  0.60139960  1.0
  O  O9950  1  0.20546268  0.48254716  0.60139960  1.0
  O  O9951  1  0.20546268  0.64921382  0.60139960  1.0
  O  O9952  1  0.20546268  0.81588049  0.60139960  1.0
  O  O9953  1  0.20546268  0.98254716  0.60139960  1.0
  O  O9954  1  0.28879602  0.14921382  0.60139960  1.0
  O  O9955  1  0.28879602  0.31588049  0.60139960  1.0
  O  O9956  1  0.28879602  0.48254716  0.60139960  1.0
  O  O9957  1  0.28879602  0.64921382  0.60139960  1.0
  O  O9958  1  0.28879602  0.81588049  0.60139960  1.0
  O  O9959  1  0.28879602  0.98254716  0.60139960  1.0
  O  O9960  1  0.37212935  0.14921382  0.60139960  1.0
  O  O9961  1  0.37212935  0.31588049  0.60139960  1.0
  O  O9962  1  0.37212935  0.48254716  0.60139960  1.0
  O  O9963  1  0.37212935  0.64921382  0.60139960  1.0
  O  O9964  1  0.37212935  0.81588049  0.60139960  1.0
  O  O9965  1  0.37212935  0.98254716  0.60139960  1.0
  O  O9966  1  0.45546268  0.14921382  0.60139960  1.0
  O  O9967  1  0.45546268  0.31588049  0.60139960  1.0
  O  O9968  1  0.45546268  0.48254716  0.60139960  1.0
  O  O9969  1  0.45546268  0.64921382  0.60139960  1.0
  O  O9970  1  0.45546268  0.81588049  0.60139960  1.0
  O  O9971  1  0.45546268  0.98254716  0.60139960  1.0
  O  O9972  1  0.53879602  0.14921382  0.60139960  1.0
  O  O9973  1  0.53879602  0.31588049  0.60139960  1.0
  O  O9974  1  0.53879602  0.48254716  0.60139960  1.0
  O  O9975  1  0.53879602  0.64921382  0.60139960  1.0
  O  O9976  1  0.53879602  0.81588049  0.60139960  1.0
  O  O9977  1  0.53879602  0.98254716  0.60139960  1.0
  O  O9978  1  0.62212935  0.14921382  0.60139960  1.0
  O  O9979  1  0.62212935  0.31588049  0.60139960  1.0
  O  O9980  1  0.62212935  0.48254716  0.60139960  1.0
  O  O9981  1  0.62212935  0.64921382  0.60139960  1.0
  O  O9982  1  0.62212935  0.81588049  0.60139960  1.0
  O  O9983  1  0.62212935  0.98254716  0.60139960  1.0
  O  O9984  1  0.70546268  0.14921382  0.60139960  1.0
  O  O9985  1  0.70546268  0.31588049  0.60139960  1.0
  O  O9986  1  0.70546268  0.48254716  0.60139960  1.0
  O  O9987  1  0.70546268  0.64921382  0.60139960  1.0
  O  O9988  1  0.70546268  0.81588049  0.60139960  1.0
  O  O9989  1  0.70546268  0.98254716  0.60139960  1.0
  O  O9990  1  0.78879602  0.14921382  0.60139960  1.0
  O  O9991  1  0.78879602  0.31588049  0.60139960  1.0
  O  O9992  1  0.78879602  0.48254716  0.60139960  1.0
  O  O9993  1  0.78879602  0.64921382  0.60139960  1.0
  O  O9994  1  0.78879602  0.81588049  0.60139960  1.0
  O  O9995  1  0.78879602  0.98254716  0.60139960  1.0
  O  O9996  1  0.87212935  0.14921382  0.60139960  1.0
  O  O9997  1  0.87212935  0.31588049  0.60139960  1.0
  O  O9998  1  0.87212935  0.48254716  0.60139960  1.0
  O  O9999  1  0.87212935  0.64921382  0.60139960  1.0
  O  O10000  1  0.87212935  0.81588049  0.60139960  1.0
  O  O10001  1  0.87212935  0.98254716  0.60139960  1.0
  O  O10002  1  0.95546268  0.14921382  0.60139960  1.0
  O  O10003  1  0.95546268  0.31588049  0.60139960  1.0
  O  O10004  1  0.95546268  0.48254716  0.60139960  1.0
  O  O10005  1  0.95546268  0.64921382  0.60139960  1.0
  O  O10006  1  0.95546268  0.81588049  0.60139960  1.0
  O  O10007  1  0.95546268  0.98254716  0.60139960  1.0
  O  O10008  1  0.06690477  0.11629628  0.51922436  1.0
  O  O10009  1  0.06690477  0.28296294  0.51922436  1.0
  O  O10010  1  0.06690477  0.44962961  0.51922436  1.0
  O  O10011  1  0.06690477  0.61629628  0.51922436  1.0
  O  O10012  1  0.06690477  0.78296294  0.51922436  1.0
  O  O10013  1  0.06690477  0.94962961  0.51922436  1.0
  O  O10014  1  0.15023810  0.11629628  0.51922436  1.0
  O  O10015  1  0.15023810  0.28296294  0.51922436  1.0
  O  O10016  1  0.15023810  0.44962961  0.51922436  1.0
  O  O10017  1  0.15023810  0.61629628  0.51922436  1.0
  O  O10018  1  0.15023810  0.78296294  0.51922436  1.0
  O  O10019  1  0.15023810  0.94962961  0.51922436  1.0
  O  O10020  1  0.23357144  0.11629628  0.51922436  1.0
  O  O10021  1  0.23357144  0.28296294  0.51922436  1.0
  O  O10022  1  0.23357144  0.44962961  0.51922436  1.0
  O  O10023  1  0.23357144  0.61629628  0.51922436  1.0
  O  O10024  1  0.23357144  0.78296294  0.51922436  1.0
  O  O10025  1  0.23357144  0.94962961  0.51922436  1.0
  O  O10026  1  0.31690477  0.11629628  0.51922436  1.0
  O  O10027  1  0.31690477  0.28296294  0.51922436  1.0
  O  O10028  1  0.31690477  0.44962961  0.51922436  1.0
  O  O10029  1  0.31690477  0.61629628  0.51922436  1.0
  O  O10030  1  0.31690477  0.78296294  0.51922436  1.0
  O  O10031  1  0.31690477  0.94962961  0.51922436  1.0
  O  O10032  1  0.40023810  0.11629628  0.51922436  1.0
  O  O10033  1  0.40023810  0.28296294  0.51922436  1.0
  O  O10034  1  0.40023810  0.44962961  0.51922436  1.0
  O  O10035  1  0.40023810  0.61629628  0.51922436  1.0
  O  O10036  1  0.40023810  0.78296294  0.51922436  1.0
  O  O10037  1  0.40023810  0.94962961  0.51922436  1.0
  O  O10038  1  0.48357144  0.11629628  0.51922436  1.0
  O  O10039  1  0.48357144  0.28296294  0.51922436  1.0
  O  O10040  1  0.48357144  0.44962961  0.51922436  1.0
  O  O10041  1  0.48357144  0.61629628  0.51922436  1.0
  O  O10042  1  0.48357144  0.78296294  0.51922436  1.0
  O  O10043  1  0.48357144  0.94962961  0.51922436  1.0
  O  O10044  1  0.56690477  0.11629628  0.51922436  1.0
  O  O10045  1  0.56690477  0.28296294  0.51922436  1.0
  O  O10046  1  0.56690477  0.44962961  0.51922436  1.0
  O  O10047  1  0.56690477  0.61629628  0.51922436  1.0
  O  O10048  1  0.56690477  0.78296294  0.51922436  1.0
  O  O10049  1  0.56690477  0.94962961  0.51922436  1.0
  O  O10050  1  0.65023810  0.11629628  0.51922436  1.0
  O  O10051  1  0.65023810  0.28296294  0.51922436  1.0
  O  O10052  1  0.65023810  0.44962961  0.51922436  1.0
  O  O10053  1  0.65023810  0.61629628  0.51922436  1.0
  O  O10054  1  0.65023810  0.78296294  0.51922436  1.0
  O  O10055  1  0.65023810  0.94962961  0.51922436  1.0
  O  O10056  1  0.73357144  0.11629628  0.51922436  1.0
  O  O10057  1  0.73357144  0.28296294  0.51922436  1.0
  O  O10058  1  0.73357144  0.44962961  0.51922436  1.0
  O  O10059  1  0.73357144  0.61629628  0.51922436  1.0
  O  O10060  1  0.73357144  0.78296294  0.51922436  1.0
  O  O10061  1  0.73357144  0.94962961  0.51922436  1.0
  O  O10062  1  0.81690477  0.11629628  0.51922436  1.0
  O  O10063  1  0.81690477  0.28296294  0.51922436  1.0
  O  O10064  1  0.81690477  0.44962961  0.51922436  1.0
  O  O10065  1  0.81690477  0.61629628  0.51922436  1.0
  O  O10066  1  0.81690477  0.78296294  0.51922436  1.0
  O  O10067  1  0.81690477  0.94962961  0.51922436  1.0
  O  O10068  1  0.90023810  0.11629628  0.51922436  1.0
  O  O10069  1  0.90023810  0.28296294  0.51922436  1.0
  O  O10070  1  0.90023810  0.44962961  0.51922436  1.0
  O  O10071  1  0.90023810  0.61629628  0.51922436  1.0
  O  O10072  1  0.90023810  0.78296294  0.51922436  1.0
  O  O10073  1  0.90023810  0.94962961  0.51922436  1.0
  O  O10074  1  0.98357144  0.11629628  0.51922436  1.0
  O  O10075  1  0.98357144  0.28296294  0.51922436  1.0
  O  O10076  1  0.98357144  0.44962961  0.51922436  1.0
  O  O10077  1  0.98357144  0.61629628  0.51922436  1.0
  O  O10078  1  0.98357144  0.78296294  0.51922436  1.0
  O  O10079  1  0.98357144  0.94962961  0.51922436  1.0
  O  O10080  1  0.04309525  0.10439152  0.59065293  1.0
  O  O10081  1  0.04309525  0.27105818  0.59065293  1.0
  O  O10082  1  0.04309525  0.43772485  0.59065293  1.0
  O  O10083  1  0.04309525  0.60439152  0.59065293  1.0
  O  O10084  1  0.04309525  0.77105818  0.59065293  1.0
  O  O10085  1  0.04309525  0.93772485  0.59065293  1.0
  O  O10086  1  0.12642858  0.10439152  0.59065293  1.0
  O  O10087  1  0.12642858  0.27105818  0.59065293  1.0
  O  O10088  1  0.12642858  0.43772485  0.59065293  1.0
  O  O10089  1  0.12642858  0.60439152  0.59065293  1.0
  O  O10090  1  0.12642858  0.77105818  0.59065293  1.0
  O  O10091  1  0.12642858  0.93772485  0.59065293  1.0
  O  O10092  1  0.20976191  0.10439152  0.59065293  1.0
  O  O10093  1  0.20976191  0.27105818  0.59065293  1.0
  O  O10094  1  0.20976191  0.43772485  0.59065293  1.0
  O  O10095  1  0.20976191  0.60439152  0.59065293  1.0
  O  O10096  1  0.20976191  0.77105818  0.59065293  1.0
  O  O10097  1  0.20976191  0.93772485  0.59065293  1.0
  O  O10098  1  0.29309525  0.10439152  0.59065293  1.0
  O  O10099  1  0.29309525  0.27105818  0.59065293  1.0
  O  O10100  1  0.29309525  0.43772485  0.59065293  1.0
  O  O10101  1  0.29309525  0.60439152  0.59065293  1.0
  O  O10102  1  0.29309525  0.77105818  0.59065293  1.0
  O  O10103  1  0.29309525  0.93772485  0.59065293  1.0
  O  O10104  1  0.37642858  0.10439152  0.59065293  1.0
  O  O10105  1  0.37642858  0.27105818  0.59065293  1.0
  O  O10106  1  0.37642858  0.43772485  0.59065293  1.0
  O  O10107  1  0.37642858  0.60439152  0.59065293  1.0
  O  O10108  1  0.37642858  0.77105818  0.59065293  1.0
  O  O10109  1  0.37642858  0.93772485  0.59065293  1.0
  O  O10110  1  0.45976191  0.10439152  0.59065293  1.0
  O  O10111  1  0.45976191  0.27105818  0.59065293  1.0
  O  O10112  1  0.45976191  0.43772485  0.59065293  1.0
  O  O10113  1  0.45976191  0.60439152  0.59065293  1.0
  O  O10114  1  0.45976191  0.77105818  0.59065293  1.0
  O  O10115  1  0.45976191  0.93772485  0.59065293  1.0
  O  O10116  1  0.54309525  0.10439152  0.59065293  1.0
  O  O10117  1  0.54309525  0.27105818  0.59065293  1.0
  O  O10118  1  0.54309525  0.43772485  0.59065293  1.0
  O  O10119  1  0.54309525  0.60439152  0.59065293  1.0
  O  O10120  1  0.54309525  0.77105818  0.59065293  1.0
  O  O10121  1  0.54309525  0.93772485  0.59065293  1.0
  O  O10122  1  0.62642858  0.10439152  0.59065293  1.0
  O  O10123  1  0.62642858  0.27105818  0.59065293  1.0
  O  O10124  1  0.62642858  0.43772485  0.59065293  1.0
  O  O10125  1  0.62642858  0.60439152  0.59065293  1.0
  O  O10126  1  0.62642858  0.77105818  0.59065293  1.0
  O  O10127  1  0.62642858  0.93772485  0.59065293  1.0
  O  O10128  1  0.70976191  0.10439152  0.59065293  1.0
  O  O10129  1  0.70976191  0.27105818  0.59065293  1.0
  O  O10130  1  0.70976191  0.43772485  0.59065293  1.0
  O  O10131  1  0.70976191  0.60439152  0.59065293  1.0
  O  O10132  1  0.70976191  0.77105818  0.59065293  1.0
  O  O10133  1  0.70976191  0.93772485  0.59065293  1.0
  O  O10134  1  0.79309525  0.10439152  0.59065293  1.0
  O  O10135  1  0.79309525  0.27105818  0.59065293  1.0
  O  O10136  1  0.79309525  0.43772485  0.59065293  1.0
  O  O10137  1  0.79309525  0.60439152  0.59065293  1.0
  O  O10138  1  0.79309525  0.77105818  0.59065293  1.0
  O  O10139  1  0.79309525  0.93772485  0.59065293  1.0
  O  O10140  1  0.87642858  0.10439152  0.59065293  1.0
  O  O10141  1  0.87642858  0.27105818  0.59065293  1.0
  O  O10142  1  0.87642858  0.43772485  0.59065293  1.0
  O  O10143  1  0.87642858  0.60439152  0.59065293  1.0
  O  O10144  1  0.87642858  0.77105818  0.59065293  1.0
  O  O10145  1  0.87642858  0.93772485  0.59065293  1.0
  O  O10146  1  0.95976191  0.10439152  0.59065293  1.0
  O  O10147  1  0.95976191  0.27105818  0.59065293  1.0
  O  O10148  1  0.95976191  0.43772485  0.59065293  1.0
  O  O10149  1  0.95976191  0.60439152  0.59065293  1.0
  O  O10150  1  0.95976191  0.77105818  0.59065293  1.0
  O  O10151  1  0.95976191  0.93772485  0.59065293  1.0
  O  O10152  1  0.01977676  0.01707483  0.53493082  1.0
  O  O10153  1  0.01977676  0.18374149  0.53493082  1.0
  O  O10154  1  0.01977676  0.35040816  0.53493082  1.0
  O  O10155  1  0.01977676  0.51707483  0.53493082  1.0
  O  O10156  1  0.01977676  0.68374149  0.53493082  1.0
  O  O10157  1  0.01977676  0.85040816  0.53493082  1.0
  O  O10158  1  0.10311010  0.01707483  0.53493082  1.0
  O  O10159  1  0.10311010  0.18374149  0.53493082  1.0
  O  O10160  1  0.10311010  0.35040816  0.53493082  1.0
  O  O10161  1  0.10311010  0.51707483  0.53493082  1.0
  O  O10162  1  0.10311010  0.68374149  0.53493082  1.0
  O  O10163  1  0.10311010  0.85040816  0.53493082  1.0
  O  O10164  1  0.18644343  0.01707483  0.53493082  1.0
  O  O10165  1  0.18644343  0.18374149  0.53493082  1.0
  O  O10166  1  0.18644343  0.35040816  0.53493082  1.0
  O  O10167  1  0.18644343  0.51707483  0.53493082  1.0
  O  O10168  1  0.18644343  0.68374149  0.53493082  1.0
  O  O10169  1  0.18644343  0.85040816  0.53493082  1.0
  O  O10170  1  0.26977676  0.01707483  0.53493082  1.0
  O  O10171  1  0.26977676  0.18374149  0.53493082  1.0
  O  O10172  1  0.26977676  0.35040816  0.53493082  1.0
  O  O10173  1  0.26977676  0.51707483  0.53493082  1.0
  O  O10174  1  0.26977676  0.68374149  0.53493082  1.0
  O  O10175  1  0.26977676  0.85040816  0.53493082  1.0
  O  O10176  1  0.35311010  0.01707483  0.53493082  1.0
  O  O10177  1  0.35311010  0.18374149  0.53493082  1.0
  O  O10178  1  0.35311010  0.35040816  0.53493082  1.0
  O  O10179  1  0.35311010  0.51707483  0.53493082  1.0
  O  O10180  1  0.35311010  0.68374149  0.53493082  1.0
  O  O10181  1  0.35311010  0.85040816  0.53493082  1.0
  O  O10182  1  0.43644343  0.01707483  0.53493082  1.0
  O  O10183  1  0.43644343  0.18374149  0.53493082  1.0
  O  O10184  1  0.43644343  0.35040816  0.53493082  1.0
  O  O10185  1  0.43644343  0.51707483  0.53493082  1.0
  O  O10186  1  0.43644343  0.68374149  0.53493082  1.0
  O  O10187  1  0.43644343  0.85040816  0.53493082  1.0
  O  O10188  1  0.51977676  0.01707483  0.53493082  1.0
  O  O10189  1  0.51977676  0.18374149  0.53493082  1.0
  O  O10190  1  0.51977676  0.35040816  0.53493082  1.0
  O  O10191  1  0.51977676  0.51707483  0.53493082  1.0
  O  O10192  1  0.51977676  0.68374149  0.53493082  1.0
  O  O10193  1  0.51977676  0.85040816  0.53493082  1.0
  O  O10194  1  0.60311010  0.01707483  0.53493082  1.0
  O  O10195  1  0.60311010  0.18374149  0.53493082  1.0
  O  O10196  1  0.60311010  0.35040816  0.53493082  1.0
  O  O10197  1  0.60311010  0.51707483  0.53493082  1.0
  O  O10198  1  0.60311010  0.68374149  0.53493082  1.0
  O  O10199  1  0.60311010  0.85040816  0.53493082  1.0
  O  O10200  1  0.68644343  0.01707483  0.53493082  1.0
  O  O10201  1  0.68644343  0.18374149  0.53493082  1.0
  O  O10202  1  0.68644343  0.35040816  0.53493082  1.0
  O  O10203  1  0.68644343  0.51707483  0.53493082  1.0
  O  O10204  1  0.68644343  0.68374149  0.53493082  1.0
  O  O10205  1  0.68644343  0.85040816  0.53493082  1.0
  O  O10206  1  0.76977676  0.01707483  0.53493082  1.0
  O  O10207  1  0.76977676  0.18374149  0.53493082  1.0
  O  O10208  1  0.76977676  0.35040816  0.53493082  1.0
  O  O10209  1  0.76977676  0.51707483  0.53493082  1.0
  O  O10210  1  0.76977676  0.68374149  0.53493082  1.0
  O  O10211  1  0.76977676  0.85040816  0.53493082  1.0
  O  O10212  1  0.85311010  0.01707483  0.53493082  1.0
  O  O10213  1  0.85311010  0.18374149  0.53493082  1.0
  O  O10214  1  0.85311010  0.35040816  0.53493082  1.0
  O  O10215  1  0.85311010  0.51707483  0.53493082  1.0
  O  O10216  1  0.85311010  0.68374149  0.53493082  1.0
  O  O10217  1  0.85311010  0.85040816  0.53493082  1.0
  O  O10218  1  0.93644343  0.01707483  0.53493082  1.0
  O  O10219  1  0.93644343  0.18374149  0.53493082  1.0
  O  O10220  1  0.93644343  0.35040816  0.53493082  1.0
  O  O10221  1  0.93644343  0.51707483  0.53493082  1.0
  O  O10222  1  0.93644343  0.68374149  0.53493082  1.0
  O  O10223  1  0.93644343  0.85040816  0.53493082  1.0
  O  O10224  1  0.07930057  0.00517007  0.60635939  1.0
  O  O10225  1  0.07930057  0.17183673  0.60635939  1.0
  O  O10226  1  0.07930057  0.33850340  0.60635939  1.0
  O  O10227  1  0.07930057  0.50517007  0.60635939  1.0
  O  O10228  1  0.07930057  0.67183673  0.60635939  1.0
  O  O10229  1  0.07930057  0.83850340  0.60635939  1.0
  O  O10230  1  0.16263391  0.00517007  0.60635939  1.0
  O  O10231  1  0.16263391  0.17183673  0.60635939  1.0
  O  O10232  1  0.16263391  0.33850340  0.60635939  1.0
  O  O10233  1  0.16263391  0.50517007  0.60635939  1.0
  O  O10234  1  0.16263391  0.67183673  0.60635939  1.0
  O  O10235  1  0.16263391  0.83850340  0.60635939  1.0
  O  O10236  1  0.24596724  0.00517007  0.60635939  1.0
  O  O10237  1  0.24596724  0.17183673  0.60635939  1.0
  O  O10238  1  0.24596724  0.33850340  0.60635939  1.0
  O  O10239  1  0.24596724  0.50517007  0.60635939  1.0
  O  O10240  1  0.24596724  0.67183673  0.60635939  1.0
  O  O10241  1  0.24596724  0.83850340  0.60635939  1.0
  O  O10242  1  0.32930057  0.00517007  0.60635939  1.0
  O  O10243  1  0.32930057  0.17183673  0.60635939  1.0
  O  O10244  1  0.32930057  0.33850340  0.60635939  1.0
  O  O10245  1  0.32930057  0.50517007  0.60635939  1.0
  O  O10246  1  0.32930057  0.67183673  0.60635939  1.0
  O  O10247  1  0.32930057  0.83850340  0.60635939  1.0
  O  O10248  1  0.41263391  0.00517007  0.60635939  1.0
  O  O10249  1  0.41263391  0.17183673  0.60635939  1.0
  O  O10250  1  0.41263391  0.33850340  0.60635939  1.0
  O  O10251  1  0.41263391  0.50517007  0.60635939  1.0
  O  O10252  1  0.41263391  0.67183673  0.60635939  1.0
  O  O10253  1  0.41263391  0.83850340  0.60635939  1.0
  O  O10254  1  0.49596724  0.00517007  0.60635939  1.0
  O  O10255  1  0.49596724  0.17183673  0.60635939  1.0
  O  O10256  1  0.49596724  0.33850340  0.60635939  1.0
  O  O10257  1  0.49596724  0.50517007  0.60635939  1.0
  O  O10258  1  0.49596724  0.67183673  0.60635939  1.0
  O  O10259  1  0.49596724  0.83850340  0.60635939  1.0
  O  O10260  1  0.57930057  0.00517007  0.60635939  1.0
  O  O10261  1  0.57930057  0.17183673  0.60635939  1.0
  O  O10262  1  0.57930057  0.33850340  0.60635939  1.0
  O  O10263  1  0.57930057  0.50517007  0.60635939  1.0
  O  O10264  1  0.57930057  0.67183673  0.60635939  1.0
  O  O10265  1  0.57930057  0.83850340  0.60635939  1.0
  O  O10266  1  0.66263391  0.00517007  0.60635939  1.0
  O  O10267  1  0.66263391  0.17183673  0.60635939  1.0
  O  O10268  1  0.66263391  0.33850340  0.60635939  1.0
  O  O10269  1  0.66263391  0.50517007  0.60635939  1.0
  O  O10270  1  0.66263391  0.67183673  0.60635939  1.0
  O  O10271  1  0.66263391  0.83850340  0.60635939  1.0
  O  O10272  1  0.74596724  0.00517007  0.60635939  1.0
  O  O10273  1  0.74596724  0.17183673  0.60635939  1.0
  O  O10274  1  0.74596724  0.33850340  0.60635939  1.0
  O  O10275  1  0.74596724  0.50517007  0.60635939  1.0
  O  O10276  1  0.74596724  0.67183673  0.60635939  1.0
  O  O10277  1  0.74596724  0.83850340  0.60635939  1.0
  O  O10278  1  0.82930057  0.00517007  0.60635939  1.0
  O  O10279  1  0.82930057  0.17183673  0.60635939  1.0
  O  O10280  1  0.82930057  0.33850340  0.60635939  1.0
  O  O10281  1  0.82930057  0.50517007  0.60635939  1.0
  O  O10282  1  0.82930057  0.67183673  0.60635939  1.0
  O  O10283  1  0.82930057  0.83850340  0.60635939  1.0
  O  O10284  1  0.91263391  0.00517007  0.60635939  1.0
  O  O10285  1  0.91263391  0.17183673  0.60635939  1.0
  O  O10286  1  0.91263391  0.33850340  0.60635939  1.0
  O  O10287  1  0.91263391  0.50517007  0.60635939  1.0
  O  O10288  1  0.91263391  0.67183673  0.60635939  1.0
  O  O10289  1  0.91263391  0.83850340  0.60635939  1.0
  O  O10290  1  0.99596724  0.00517007  0.60635939  1.0
  O  O10291  1  0.99596724  0.17183673  0.60635939  1.0
  O  O10292  1  0.99596724  0.33850340  0.60635939  1.0
  O  O10293  1  0.99596724  0.50517007  0.60635939  1.0
  O  O10294  1  0.99596724  0.67183673  0.60635939  1.0
  O  O10295  1  0.99596724  0.83850340  0.60635939  1.0
  O  O10296  1  0.02260947  0.13878199  0.52553470  1.0
  O  O10297  1  0.02260947  0.30544866  0.52553470  1.0
  O  O10298  1  0.02260947  0.47211533  0.52553470  1.0
  O  O10299  1  0.02260947  0.63878199  0.52553470  1.0
  O  O10300  1  0.02260947  0.80544866  0.52553470  1.0
  O  O10301  1  0.02260947  0.97211533  0.52553470  1.0
  O  O10302  1  0.10594281  0.13878199  0.52553470  1.0
  O  O10303  1  0.10594281  0.30544866  0.52553470  1.0
  O  O10304  1  0.10594281  0.47211533  0.52553470  1.0
  O  O10305  1  0.10594281  0.63878199  0.52553470  1.0
  O  O10306  1  0.10594281  0.80544866  0.52553470  1.0
  O  O10307  1  0.10594281  0.97211533  0.52553470  1.0
  O  O10308  1  0.18927614  0.13878199  0.52553470  1.0
  O  O10309  1  0.18927614  0.30544866  0.52553470  1.0
  O  O10310  1  0.18927614  0.47211533  0.52553470  1.0
  O  O10311  1  0.18927614  0.63878199  0.52553470  1.0
  O  O10312  1  0.18927614  0.80544866  0.52553470  1.0
  O  O10313  1  0.18927614  0.97211533  0.52553470  1.0
  O  O10314  1  0.27260947  0.13878199  0.52553470  1.0
  O  O10315  1  0.27260947  0.30544866  0.52553470  1.0
  O  O10316  1  0.27260947  0.47211533  0.52553470  1.0
  O  O10317  1  0.27260947  0.63878199  0.52553470  1.0
  O  O10318  1  0.27260947  0.80544866  0.52553470  1.0
  O  O10319  1  0.27260947  0.97211533  0.52553470  1.0
  O  O10320  1  0.35594281  0.13878199  0.52553470  1.0
  O  O10321  1  0.35594281  0.30544866  0.52553470  1.0
  O  O10322  1  0.35594281  0.47211533  0.52553470  1.0
  O  O10323  1  0.35594281  0.63878199  0.52553470  1.0
  O  O10324  1  0.35594281  0.80544866  0.52553470  1.0
  O  O10325  1  0.35594281  0.97211533  0.52553470  1.0
  O  O10326  1  0.43927614  0.13878199  0.52553470  1.0
  O  O10327  1  0.43927614  0.30544866  0.52553470  1.0
  O  O10328  1  0.43927614  0.47211533  0.52553470  1.0
  O  O10329  1  0.43927614  0.63878199  0.52553470  1.0
  O  O10330  1  0.43927614  0.80544866  0.52553470  1.0
  O  O10331  1  0.43927614  0.97211533  0.52553470  1.0
  O  O10332  1  0.52260947  0.13878199  0.52553470  1.0
  O  O10333  1  0.52260947  0.30544866  0.52553470  1.0
  O  O10334  1  0.52260947  0.47211533  0.52553470  1.0
  O  O10335  1  0.52260947  0.63878199  0.52553470  1.0
  O  O10336  1  0.52260947  0.80544866  0.52553470  1.0
  O  O10337  1  0.52260947  0.97211533  0.52553470  1.0
  O  O10338  1  0.60594281  0.13878199  0.52553470  1.0
  O  O10339  1  0.60594281  0.30544866  0.52553470  1.0
  O  O10340  1  0.60594281  0.47211533  0.52553470  1.0
  O  O10341  1  0.60594281  0.63878199  0.52553470  1.0
  O  O10342  1  0.60594281  0.80544866  0.52553470  1.0
  O  O10343  1  0.60594281  0.97211533  0.52553470  1.0
  O  O10344  1  0.68927614  0.13878199  0.52553470  1.0
  O  O10345  1  0.68927614  0.30544866  0.52553470  1.0
  O  O10346  1  0.68927614  0.47211533  0.52553470  1.0
  O  O10347  1  0.68927614  0.63878199  0.52553470  1.0
  O  O10348  1  0.68927614  0.80544866  0.52553470  1.0
  O  O10349  1  0.68927614  0.97211533  0.52553470  1.0
  O  O10350  1  0.77260947  0.13878199  0.52553470  1.0
  O  O10351  1  0.77260947  0.30544866  0.52553470  1.0
  O  O10352  1  0.77260947  0.47211533  0.52553470  1.0
  O  O10353  1  0.77260947  0.63878199  0.52553470  1.0
  O  O10354  1  0.77260947  0.80544866  0.52553470  1.0
  O  O10355  1  0.77260947  0.97211533  0.52553470  1.0
  O  O10356  1  0.85594281  0.13878199  0.52553470  1.0
  O  O10357  1  0.85594281  0.30544866  0.52553470  1.0
  O  O10358  1  0.85594281  0.47211533  0.52553470  1.0
  O  O10359  1  0.85594281  0.63878199  0.52553470  1.0
  O  O10360  1  0.85594281  0.80544866  0.52553470  1.0
  O  O10361  1  0.85594281  0.97211533  0.52553470  1.0
  O  O10362  1  0.93927614  0.13878199  0.52553470  1.0
  O  O10363  1  0.93927614  0.30544866  0.52553470  1.0
  O  O10364  1  0.93927614  0.47211533  0.52553470  1.0
  O  O10365  1  0.93927614  0.63878199  0.52553470  1.0
  O  O10366  1  0.93927614  0.80544866  0.52553470  1.0
  O  O10367  1  0.93927614  0.97211533  0.52553470  1.0
  O  O10368  1  0.08213328  0.12687723  0.59696327  1.0
  O  O10369  1  0.08213328  0.29354390  0.59696327  1.0
  O  O10370  1  0.08213328  0.46021056  0.59696327  1.0
  O  O10371  1  0.08213328  0.62687723  0.59696327  1.0
  O  O10372  1  0.08213328  0.79354390  0.59696327  1.0
  O  O10373  1  0.08213328  0.96021056  0.59696327  1.0
  O  O10374  1  0.16546662  0.12687723  0.59696327  1.0
  O  O10375  1  0.16546662  0.29354390  0.59696327  1.0
  O  O10376  1  0.16546662  0.46021056  0.59696327  1.0
  O  O10377  1  0.16546662  0.62687723  0.59696327  1.0
  O  O10378  1  0.16546662  0.79354390  0.59696327  1.0
  O  O10379  1  0.16546662  0.96021056  0.59696327  1.0
  O  O10380  1  0.24879995  0.12687723  0.59696327  1.0
  O  O10381  1  0.24879995  0.29354390  0.59696327  1.0
  O  O10382  1  0.24879995  0.46021056  0.59696327  1.0
  O  O10383  1  0.24879995  0.62687723  0.59696327  1.0
  O  O10384  1  0.24879995  0.79354390  0.59696327  1.0
  O  O10385  1  0.24879995  0.96021056  0.59696327  1.0
  O  O10386  1  0.33213328  0.12687723  0.59696327  1.0
  O  O10387  1  0.33213328  0.29354390  0.59696327  1.0
  O  O10388  1  0.33213328  0.46021056  0.59696327  1.0
  O  O10389  1  0.33213328  0.62687723  0.59696327  1.0
  O  O10390  1  0.33213328  0.79354390  0.59696327  1.0
  O  O10391  1  0.33213328  0.96021056  0.59696327  1.0
  O  O10392  1  0.41546662  0.12687723  0.59696327  1.0
  O  O10393  1  0.41546662  0.29354390  0.59696327  1.0
  O  O10394  1  0.41546662  0.46021056  0.59696327  1.0
  O  O10395  1  0.41546662  0.62687723  0.59696327  1.0
  O  O10396  1  0.41546662  0.79354390  0.59696327  1.0
  O  O10397  1  0.41546662  0.96021056  0.59696327  1.0
  O  O10398  1  0.49879995  0.12687723  0.59696327  1.0
  O  O10399  1  0.49879995  0.29354390  0.59696327  1.0
  O  O10400  1  0.49879995  0.46021056  0.59696327  1.0
  O  O10401  1  0.49879995  0.62687723  0.59696327  1.0
  O  O10402  1  0.49879995  0.79354390  0.59696327  1.0
  O  O10403  1  0.49879995  0.96021056  0.59696327  1.0
  O  O10404  1  0.58213328  0.12687723  0.59696327  1.0
  O  O10405  1  0.58213328  0.29354390  0.59696327  1.0
  O  O10406  1  0.58213328  0.46021056  0.59696327  1.0
  O  O10407  1  0.58213328  0.62687723  0.59696327  1.0
  O  O10408  1  0.58213328  0.79354390  0.59696327  1.0
  O  O10409  1  0.58213328  0.96021056  0.59696327  1.0
  O  O10410  1  0.66546662  0.12687723  0.59696327  1.0
  O  O10411  1  0.66546662  0.29354390  0.59696327  1.0
  O  O10412  1  0.66546662  0.46021056  0.59696327  1.0
  O  O10413  1  0.66546662  0.62687723  0.59696327  1.0
  O  O10414  1  0.66546662  0.79354390  0.59696327  1.0
  O  O10415  1  0.66546662  0.96021056  0.59696327  1.0
  O  O10416  1  0.74879995  0.12687723  0.59696327  1.0
  O  O10417  1  0.74879995  0.29354390  0.59696327  1.0
  O  O10418  1  0.74879995  0.46021056  0.59696327  1.0
  O  O10419  1  0.74879995  0.62687723  0.59696327  1.0
  O  O10420  1  0.74879995  0.79354390  0.59696327  1.0
  O  O10421  1  0.74879995  0.96021056  0.59696327  1.0
  O  O10422  1  0.83213328  0.12687723  0.59696327  1.0
  O  O10423  1  0.83213328  0.29354390  0.59696327  1.0
  O  O10424  1  0.83213328  0.46021056  0.59696327  1.0
  O  O10425  1  0.83213328  0.62687723  0.59696327  1.0
  O  O10426  1  0.83213328  0.79354390  0.59696327  1.0
  O  O10427  1  0.83213328  0.96021056  0.59696327  1.0
  O  O10428  1  0.91546662  0.12687723  0.59696327  1.0
  O  O10429  1  0.91546662  0.29354390  0.59696327  1.0
  O  O10430  1  0.91546662  0.46021056  0.59696327  1.0
  O  O10431  1  0.91546662  0.62687723  0.59696327  1.0
  O  O10432  1  0.91546662  0.79354390  0.59696327  1.0
  O  O10433  1  0.91546662  0.96021056  0.59696327  1.0
  O  O10434  1  0.99879995  0.12687723  0.59696327  1.0
  O  O10435  1  0.99879995  0.29354390  0.59696327  1.0
  O  O10436  1  0.99879995  0.46021056  0.59696327  1.0
  O  O10437  1  0.99879995  0.62687723  0.59696327  1.0
  O  O10438  1  0.99879995  0.79354390  0.59696327  1.0
  O  O10439  1  0.99879995  0.96021056  0.59696327  1.0
  O  O10440  1  0.02804254  0.12164730  0.63223404  1.0
  O  O10441  1  0.02804254  0.28831397  0.63223404  1.0
  O  O10442  1  0.02804254  0.45498064  0.63223404  1.0
  O  O10443  1  0.02804254  0.62164730  0.63223404  1.0
  O  O10444  1  0.02804254  0.78831397  0.63223404  1.0
  O  O10445  1  0.02804254  0.95498064  0.63223404  1.0
  O  O10446  1  0.11137588  0.12164730  0.63223404  1.0
  O  O10447  1  0.11137588  0.28831397  0.63223404  1.0
  O  O10448  1  0.11137588  0.45498064  0.63223404  1.0
  O  O10449  1  0.11137588  0.62164730  0.63223404  1.0
  O  O10450  1  0.11137588  0.78831397  0.63223404  1.0
  O  O10451  1  0.11137588  0.95498064  0.63223404  1.0
  O  O10452  1  0.19470921  0.12164730  0.63223404  1.0
  O  O10453  1  0.19470921  0.28831397  0.63223404  1.0
  O  O10454  1  0.19470921  0.45498064  0.63223404  1.0
  O  O10455  1  0.19470921  0.62164730  0.63223404  1.0
  O  O10456  1  0.19470921  0.78831397  0.63223404  1.0
  O  O10457  1  0.19470921  0.95498064  0.63223404  1.0
  O  O10458  1  0.27804254  0.12164730  0.63223404  1.0
  O  O10459  1  0.27804254  0.28831397  0.63223404  1.0
  O  O10460  1  0.27804254  0.45498064  0.63223404  1.0
  O  O10461  1  0.27804254  0.62164730  0.63223404  1.0
  O  O10462  1  0.27804254  0.78831397  0.63223404  1.0
  O  O10463  1  0.27804254  0.95498064  0.63223404  1.0
  O  O10464  1  0.36137588  0.12164730  0.63223404  1.0
  O  O10465  1  0.36137588  0.28831397  0.63223404  1.0
  O  O10466  1  0.36137588  0.45498064  0.63223404  1.0
  O  O10467  1  0.36137588  0.62164730  0.63223404  1.0
  O  O10468  1  0.36137588  0.78831397  0.63223404  1.0
  O  O10469  1  0.36137588  0.95498064  0.63223404  1.0
  O  O10470  1  0.44470921  0.12164730  0.63223404  1.0
  O  O10471  1  0.44470921  0.28831397  0.63223404  1.0
  O  O10472  1  0.44470921  0.45498064  0.63223404  1.0
  O  O10473  1  0.44470921  0.62164730  0.63223404  1.0
  O  O10474  1  0.44470921  0.78831397  0.63223404  1.0
  O  O10475  1  0.44470921  0.95498064  0.63223404  1.0
  O  O10476  1  0.52804254  0.12164730  0.63223404  1.0
  O  O10477  1  0.52804254  0.28831397  0.63223404  1.0
  O  O10478  1  0.52804254  0.45498064  0.63223404  1.0
  O  O10479  1  0.52804254  0.62164730  0.63223404  1.0
  O  O10480  1  0.52804254  0.78831397  0.63223404  1.0
  O  O10481  1  0.52804254  0.95498064  0.63223404  1.0
  O  O10482  1  0.61137588  0.12164730  0.63223404  1.0
  O  O10483  1  0.61137588  0.28831397  0.63223404  1.0
  O  O10484  1  0.61137588  0.45498064  0.63223404  1.0
  O  O10485  1  0.61137588  0.62164730  0.63223404  1.0
  O  O10486  1  0.61137588  0.78831397  0.63223404  1.0
  O  O10487  1  0.61137588  0.95498064  0.63223404  1.0
  O  O10488  1  0.69470921  0.12164730  0.63223404  1.0
  O  O10489  1  0.69470921  0.28831397  0.63223404  1.0
  O  O10490  1  0.69470921  0.45498064  0.63223404  1.0
  O  O10491  1  0.69470921  0.62164730  0.63223404  1.0
  O  O10492  1  0.69470921  0.78831397  0.63223404  1.0
  O  O10493  1  0.69470921  0.95498064  0.63223404  1.0
  O  O10494  1  0.77804254  0.12164730  0.63223404  1.0
  O  O10495  1  0.77804254  0.28831397  0.63223404  1.0
  O  O10496  1  0.77804254  0.45498064  0.63223404  1.0
  O  O10497  1  0.77804254  0.62164730  0.63223404  1.0
  O  O10498  1  0.77804254  0.78831397  0.63223404  1.0
  O  O10499  1  0.77804254  0.95498064  0.63223404  1.0
  O  O10500  1  0.86137588  0.12164730  0.63223404  1.0
  O  O10501  1  0.86137588  0.28831397  0.63223404  1.0
  O  O10502  1  0.86137588  0.45498064  0.63223404  1.0
  O  O10503  1  0.86137588  0.62164730  0.63223404  1.0
  O  O10504  1  0.86137588  0.78831397  0.63223404  1.0
  O  O10505  1  0.86137588  0.95498064  0.63223404  1.0
  O  O10506  1  0.94470921  0.12164730  0.63223404  1.0
  O  O10507  1  0.94470921  0.28831397  0.63223404  1.0
  O  O10508  1  0.94470921  0.45498064  0.63223404  1.0
  O  O10509  1  0.94470921  0.62164730  0.63223404  1.0
  O  O10510  1  0.94470921  0.78831397  0.63223404  1.0
  O  O10511  1  0.94470921  0.95498064  0.63223404  1.0
  O  O10512  1  0.05185207  0.13355207  0.56080547  1.0
  O  O10513  1  0.05185207  0.30021873  0.56080547  1.0
  O  O10514  1  0.05185207  0.46688540  0.56080547  1.0
  O  O10515  1  0.05185207  0.63355207  0.56080547  1.0
  O  O10516  1  0.05185207  0.80021873  0.56080547  1.0
  O  O10517  1  0.05185207  0.96688540  0.56080547  1.0
  O  O10518  1  0.13518540  0.13355207  0.56080547  1.0
  O  O10519  1  0.13518540  0.30021873  0.56080547  1.0
  O  O10520  1  0.13518540  0.46688540  0.56080547  1.0
  O  O10521  1  0.13518540  0.63355207  0.56080547  1.0
  O  O10522  1  0.13518540  0.80021873  0.56080547  1.0
  O  O10523  1  0.13518540  0.96688540  0.56080547  1.0
  O  O10524  1  0.21851873  0.13355207  0.56080547  1.0
  O  O10525  1  0.21851873  0.30021873  0.56080547  1.0
  O  O10526  1  0.21851873  0.46688540  0.56080547  1.0
  O  O10527  1  0.21851873  0.63355207  0.56080547  1.0
  O  O10528  1  0.21851873  0.80021873  0.56080547  1.0
  O  O10529  1  0.21851873  0.96688540  0.56080547  1.0
  O  O10530  1  0.30185207  0.13355207  0.56080547  1.0
  O  O10531  1  0.30185207  0.30021873  0.56080547  1.0
  O  O10532  1  0.30185207  0.46688540  0.56080547  1.0
  O  O10533  1  0.30185207  0.63355207  0.56080547  1.0
  O  O10534  1  0.30185207  0.80021873  0.56080547  1.0
  O  O10535  1  0.30185207  0.96688540  0.56080547  1.0
  O  O10536  1  0.38518540  0.13355207  0.56080547  1.0
  O  O10537  1  0.38518540  0.30021873  0.56080547  1.0
  O  O10538  1  0.38518540  0.46688540  0.56080547  1.0
  O  O10539  1  0.38518540  0.63355207  0.56080547  1.0
  O  O10540  1  0.38518540  0.80021873  0.56080547  1.0
  O  O10541  1  0.38518540  0.96688540  0.56080547  1.0
  O  O10542  1  0.46851873  0.13355207  0.56080547  1.0
  O  O10543  1  0.46851873  0.30021873  0.56080547  1.0
  O  O10544  1  0.46851873  0.46688540  0.56080547  1.0
  O  O10545  1  0.46851873  0.63355207  0.56080547  1.0
  O  O10546  1  0.46851873  0.80021873  0.56080547  1.0
  O  O10547  1  0.46851873  0.96688540  0.56080547  1.0
  O  O10548  1  0.55185207  0.13355207  0.56080547  1.0
  O  O10549  1  0.55185207  0.30021873  0.56080547  1.0
  O  O10550  1  0.55185207  0.46688540  0.56080547  1.0
  O  O10551  1  0.55185207  0.63355207  0.56080547  1.0
  O  O10552  1  0.55185207  0.80021873  0.56080547  1.0
  O  O10553  1  0.55185207  0.96688540  0.56080547  1.0
  O  O10554  1  0.63518540  0.13355207  0.56080547  1.0
  O  O10555  1  0.63518540  0.30021873  0.56080547  1.0
  O  O10556  1  0.63518540  0.46688540  0.56080547  1.0
  O  O10557  1  0.63518540  0.63355207  0.56080547  1.0
  O  O10558  1  0.63518540  0.80021873  0.56080547  1.0
  O  O10559  1  0.63518540  0.96688540  0.56080547  1.0
  O  O10560  1  0.71851873  0.13355207  0.56080547  1.0
  O  O10561  1  0.71851873  0.30021873  0.56080547  1.0
  O  O10562  1  0.71851873  0.46688540  0.56080547  1.0
  O  O10563  1  0.71851873  0.63355207  0.56080547  1.0
  O  O10564  1  0.71851873  0.80021873  0.56080547  1.0
  O  O10565  1  0.71851873  0.96688540  0.56080547  1.0
  O  O10566  1  0.80185207  0.13355207  0.56080547  1.0
  O  O10567  1  0.80185207  0.30021873  0.56080547  1.0
  O  O10568  1  0.80185207  0.46688540  0.56080547  1.0
  O  O10569  1  0.80185207  0.63355207  0.56080547  1.0
  O  O10570  1  0.80185207  0.80021873  0.56080547  1.0
  O  O10571  1  0.80185207  0.96688540  0.56080547  1.0
  O  O10572  1  0.88518540  0.13355207  0.56080547  1.0
  O  O10573  1  0.88518540  0.30021873  0.56080547  1.0
  O  O10574  1  0.88518540  0.46688540  0.56080547  1.0
  O  O10575  1  0.88518540  0.63355207  0.56080547  1.0
  O  O10576  1  0.88518540  0.80021873  0.56080547  1.0
  O  O10577  1  0.88518540  0.96688540  0.56080547  1.0
  O  O10578  1  0.96851873  0.13355207  0.56080547  1.0
  O  O10579  1  0.96851873  0.30021873  0.56080547  1.0
  O  O10580  1  0.96851873  0.46688540  0.56080547  1.0
  O  O10581  1  0.96851873  0.63355207  0.56080547  1.0
  O  O10582  1  0.96851873  0.80021873  0.56080547  1.0
  O  O10583  1  0.96851873  0.96688540  0.56080547  1.0
  O  O10584  1  0.02521284  0.16660261  0.64163513  1.0
  O  O10585  1  0.02521284  0.33326928  0.64163513  1.0
  O  O10586  1  0.02521284  0.49993595  0.64163513  1.0
  O  O10587  1  0.02521284  0.66660261  0.64163513  1.0
  O  O10588  1  0.02521284  0.83326928  0.64163513  1.0
  O  O10589  1  0.02521284  0.99993595  0.64163513  1.0
  O  O10590  1  0.10854617  0.16660261  0.64163513  1.0
  O  O10591  1  0.10854617  0.33326928  0.64163513  1.0
  O  O10592  1  0.10854617  0.49993595  0.64163513  1.0
  O  O10593  1  0.10854617  0.66660261  0.64163513  1.0
  O  O10594  1  0.10854617  0.83326928  0.64163513  1.0
  O  O10595  1  0.10854617  0.99993595  0.64163513  1.0
  O  O10596  1  0.19187951  0.16660261  0.64163513  1.0
  O  O10597  1  0.19187951  0.33326928  0.64163513  1.0
  O  O10598  1  0.19187951  0.49993595  0.64163513  1.0
  O  O10599  1  0.19187951  0.66660261  0.64163513  1.0
  O  O10600  1  0.19187951  0.83326928  0.64163513  1.0
  O  O10601  1  0.19187951  0.99993595  0.64163513  1.0
  O  O10602  1  0.27521284  0.16660261  0.64163513  1.0
  O  O10603  1  0.27521284  0.33326928  0.64163513  1.0
  O  O10604  1  0.27521284  0.49993595  0.64163513  1.0
  O  O10605  1  0.27521284  0.66660261  0.64163513  1.0
  O  O10606  1  0.27521284  0.83326928  0.64163513  1.0
  O  O10607  1  0.27521284  0.99993595  0.64163513  1.0
  O  O10608  1  0.35854617  0.16660261  0.64163513  1.0
  O  O10609  1  0.35854617  0.33326928  0.64163513  1.0
  O  O10610  1  0.35854617  0.49993595  0.64163513  1.0
  O  O10611  1  0.35854617  0.66660261  0.64163513  1.0
  O  O10612  1  0.35854617  0.83326928  0.64163513  1.0
  O  O10613  1  0.35854617  0.99993595  0.64163513  1.0
  O  O10614  1  0.44187951  0.16660261  0.64163513  1.0
  O  O10615  1  0.44187951  0.33326928  0.64163513  1.0
  O  O10616  1  0.44187951  0.49993595  0.64163513  1.0
  O  O10617  1  0.44187951  0.66660261  0.64163513  1.0
  O  O10618  1  0.44187951  0.83326928  0.64163513  1.0
  O  O10619  1  0.44187951  0.99993595  0.64163513  1.0
  O  O10620  1  0.52521284  0.16660261  0.64163513  1.0
  O  O10621  1  0.52521284  0.33326928  0.64163513  1.0
  O  O10622  1  0.52521284  0.49993595  0.64163513  1.0
  O  O10623  1  0.52521284  0.66660261  0.64163513  1.0
  O  O10624  1  0.52521284  0.83326928  0.64163513  1.0
  O  O10625  1  0.52521284  0.99993595  0.64163513  1.0
  O  O10626  1  0.60854617  0.16660261  0.64163513  1.0
  O  O10627  1  0.60854617  0.33326928  0.64163513  1.0
  O  O10628  1  0.60854617  0.49993595  0.64163513  1.0
  O  O10629  1  0.60854617  0.66660261  0.64163513  1.0
  O  O10630  1  0.60854617  0.83326928  0.64163513  1.0
  O  O10631  1  0.60854617  0.99993595  0.64163513  1.0
  O  O10632  1  0.69187951  0.16660261  0.64163513  1.0
  O  O10633  1  0.69187951  0.33326928  0.64163513  1.0
  O  O10634  1  0.69187951  0.49993595  0.64163513  1.0
  O  O10635  1  0.69187951  0.66660261  0.64163513  1.0
  O  O10636  1  0.69187951  0.83326928  0.64163513  1.0
  O  O10637  1  0.69187951  0.99993595  0.64163513  1.0
  O  O10638  1  0.77521284  0.16660261  0.64163513  1.0
  O  O10639  1  0.77521284  0.33326928  0.64163513  1.0
  O  O10640  1  0.77521284  0.49993595  0.64163513  1.0
  O  O10641  1  0.77521284  0.66660261  0.64163513  1.0
  O  O10642  1  0.77521284  0.83326928  0.64163513  1.0
  O  O10643  1  0.77521284  0.99993595  0.64163513  1.0
  O  O10644  1  0.85854617  0.16660261  0.64163513  1.0
  O  O10645  1  0.85854617  0.33326928  0.64163513  1.0
  O  O10646  1  0.85854617  0.49993595  0.64163513  1.0
  O  O10647  1  0.85854617  0.66660261  0.64163513  1.0
  O  O10648  1  0.85854617  0.83326928  0.64163513  1.0
  O  O10649  1  0.85854617  0.99993595  0.64163513  1.0
  O  O10650  1  0.94187951  0.16660261  0.64163513  1.0
  O  O10651  1  0.94187951  0.33326928  0.64163513  1.0
  O  O10652  1  0.94187951  0.49993595  0.64163513  1.0
  O  O10653  1  0.94187951  0.66660261  0.64163513  1.0
  O  O10654  1  0.94187951  0.83326928  0.64163513  1.0
  O  O10655  1  0.94187951  0.99993595  0.64163513  1.0
  O  O10656  1  0.04902236  0.01184071  0.57020656  1.0
  O  O10657  1  0.04902236  0.17850738  0.57020656  1.0
  O  O10658  1  0.04902236  0.34517404  0.57020656  1.0
  O  O10659  1  0.04902236  0.51184071  0.57020656  1.0
  O  O10660  1  0.04902236  0.67850738  0.57020656  1.0
  O  O10661  1  0.04902236  0.84517404  0.57020656  1.0
  O  O10662  1  0.13235570  0.01184071  0.57020656  1.0
  O  O10663  1  0.13235570  0.17850738  0.57020656  1.0
  O  O10664  1  0.13235570  0.34517404  0.57020656  1.0
  O  O10665  1  0.13235570  0.51184071  0.57020656  1.0
  O  O10666  1  0.13235570  0.67850738  0.57020656  1.0
  O  O10667  1  0.13235570  0.84517404  0.57020656  1.0
  O  O10668  1  0.21568903  0.01184071  0.57020656  1.0
  O  O10669  1  0.21568903  0.17850738  0.57020656  1.0
  O  O10670  1  0.21568903  0.34517404  0.57020656  1.0
  O  O10671  1  0.21568903  0.51184071  0.57020656  1.0
  O  O10672  1  0.21568903  0.67850738  0.57020656  1.0
  O  O10673  1  0.21568903  0.84517404  0.57020656  1.0
  O  O10674  1  0.29902236  0.01184071  0.57020656  1.0
  O  O10675  1  0.29902236  0.17850738  0.57020656  1.0
  O  O10676  1  0.29902236  0.34517404  0.57020656  1.0
  O  O10677  1  0.29902236  0.51184071  0.57020656  1.0
  O  O10678  1  0.29902236  0.67850738  0.57020656  1.0
  O  O10679  1  0.29902236  0.84517404  0.57020656  1.0
  O  O10680  1  0.38235570  0.01184071  0.57020656  1.0
  O  O10681  1  0.38235570  0.17850738  0.57020656  1.0
  O  O10682  1  0.38235570  0.34517404  0.57020656  1.0
  O  O10683  1  0.38235570  0.51184071  0.57020656  1.0
  O  O10684  1  0.38235570  0.67850738  0.57020656  1.0
  O  O10685  1  0.38235570  0.84517404  0.57020656  1.0
  O  O10686  1  0.46568903  0.01184071  0.57020656  1.0
  O  O10687  1  0.46568903  0.17850738  0.57020656  1.0
  O  O10688  1  0.46568903  0.34517404  0.57020656  1.0
  O  O10689  1  0.46568903  0.51184071  0.57020656  1.0
  O  O10690  1  0.46568903  0.67850738  0.57020656  1.0
  O  O10691  1  0.46568903  0.84517404  0.57020656  1.0
  O  O10692  1  0.54902236  0.01184071  0.57020656  1.0
  O  O10693  1  0.54902236  0.17850738  0.57020656  1.0
  O  O10694  1  0.54902236  0.34517404  0.57020656  1.0
  O  O10695  1  0.54902236  0.51184071  0.57020656  1.0
  O  O10696  1  0.54902236  0.67850738  0.57020656  1.0
  O  O10697  1  0.54902236  0.84517404  0.57020656  1.0
  O  O10698  1  0.63235570  0.01184071  0.57020656  1.0
  O  O10699  1  0.63235570  0.17850738  0.57020656  1.0
  O  O10700  1  0.63235570  0.34517404  0.57020656  1.0
  O  O10701  1  0.63235570  0.51184071  0.57020656  1.0
  O  O10702  1  0.63235570  0.67850738  0.57020656  1.0
  O  O10703  1  0.63235570  0.84517404  0.57020656  1.0
  O  O10704  1  0.71568903  0.01184071  0.57020656  1.0
  O  O10705  1  0.71568903  0.17850738  0.57020656  1.0
  O  O10706  1  0.71568903  0.34517404  0.57020656  1.0
  O  O10707  1  0.71568903  0.51184071  0.57020656  1.0
  O  O10708  1  0.71568903  0.67850738  0.57020656  1.0
  O  O10709  1  0.71568903  0.84517404  0.57020656  1.0
  O  O10710  1  0.79902236  0.01184071  0.57020656  1.0
  O  O10711  1  0.79902236  0.17850738  0.57020656  1.0
  O  O10712  1  0.79902236  0.34517404  0.57020656  1.0
  O  O10713  1  0.79902236  0.51184071  0.57020656  1.0
  O  O10714  1  0.79902236  0.67850738  0.57020656  1.0
  O  O10715  1  0.79902236  0.84517404  0.57020656  1.0
  O  O10716  1  0.88235570  0.01184071  0.57020656  1.0
  O  O10717  1  0.88235570  0.17850738  0.57020656  1.0
  O  O10718  1  0.88235570  0.34517404  0.57020656  1.0
  O  O10719  1  0.88235570  0.51184071  0.57020656  1.0
  O  O10720  1  0.88235570  0.67850738  0.57020656  1.0
  O  O10721  1  0.88235570  0.84517404  0.57020656  1.0
  O  O10722  1  0.96568903  0.01184071  0.57020656  1.0
  O  O10723  1  0.96568903  0.17850738  0.57020656  1.0
  O  O10724  1  0.96568903  0.34517404  0.57020656  1.0
  O  O10725  1  0.96568903  0.51184071  0.57020656  1.0
  O  O10726  1  0.96568903  0.67850738  0.57020656  1.0
  O  O10727  1  0.96568903  0.84517404  0.57020656  1.0
  O  O10728  1  0.07028827  0.07031475  0.51080412  1.0
  O  O10729  1  0.07028827  0.23698141  0.51080412  1.0
  O  O10730  1  0.07028827  0.40364808  0.51080412  1.0
  O  O10731  1  0.07028827  0.57031475  0.51080412  1.0
  O  O10732  1  0.07028827  0.73698141  0.51080412  1.0
  O  O10733  1  0.07028827  0.90364808  0.51080412  1.0
  O  O10734  1  0.15362161  0.07031475  0.51080412  1.0
  O  O10735  1  0.15362161  0.23698141  0.51080412  1.0
  O  O10736  1  0.15362161  0.40364808  0.51080412  1.0
  O  O10737  1  0.15362161  0.57031475  0.51080412  1.0
  O  O10738  1  0.15362161  0.73698141  0.51080412  1.0
  O  O10739  1  0.15362161  0.90364808  0.51080412  1.0
  O  O10740  1  0.23695494  0.07031475  0.51080412  1.0
  O  O10741  1  0.23695494  0.23698141  0.51080412  1.0
  O  O10742  1  0.23695494  0.40364808  0.51080412  1.0
  O  O10743  1  0.23695494  0.57031475  0.51080412  1.0
  O  O10744  1  0.23695494  0.73698141  0.51080412  1.0
  O  O10745  1  0.23695494  0.90364808  0.51080412  1.0
  O  O10746  1  0.32028827  0.07031475  0.51080412  1.0
  O  O10747  1  0.32028827  0.23698141  0.51080412  1.0
  O  O10748  1  0.32028827  0.40364808  0.51080412  1.0
  O  O10749  1  0.32028827  0.57031475  0.51080412  1.0
  O  O10750  1  0.32028827  0.73698141  0.51080412  1.0
  O  O10751  1  0.32028827  0.90364808  0.51080412  1.0
  O  O10752  1  0.40362161  0.07031475  0.51080412  1.0
  O  O10753  1  0.40362161  0.23698141  0.51080412  1.0
  O  O10754  1  0.40362161  0.40364808  0.51080412  1.0
  O  O10755  1  0.40362161  0.57031475  0.51080412  1.0
  O  O10756  1  0.40362161  0.73698141  0.51080412  1.0
  O  O10757  1  0.40362161  0.90364808  0.51080412  1.0
  O  O10758  1  0.48695494  0.07031475  0.51080412  1.0
  O  O10759  1  0.48695494  0.23698141  0.51080412  1.0
  O  O10760  1  0.48695494  0.40364808  0.51080412  1.0
  O  O10761  1  0.48695494  0.57031475  0.51080412  1.0
  O  O10762  1  0.48695494  0.73698141  0.51080412  1.0
  O  O10763  1  0.48695494  0.90364808  0.51080412  1.0
  O  O10764  1  0.57028827  0.07031475  0.51080412  1.0
  O  O10765  1  0.57028827  0.23698141  0.51080412  1.0
  O  O10766  1  0.57028827  0.40364808  0.51080412  1.0
  O  O10767  1  0.57028827  0.57031475  0.51080412  1.0
  O  O10768  1  0.57028827  0.73698141  0.51080412  1.0
  O  O10769  1  0.57028827  0.90364808  0.51080412  1.0
  O  O10770  1  0.65362161  0.07031475  0.51080412  1.0
  O  O10771  1  0.65362161  0.23698141  0.51080412  1.0
  O  O10772  1  0.65362161  0.40364808  0.51080412  1.0
  O  O10773  1  0.65362161  0.57031475  0.51080412  1.0
  O  O10774  1  0.65362161  0.73698141  0.51080412  1.0
  O  O10775  1  0.65362161  0.90364808  0.51080412  1.0
  O  O10776  1  0.73695494  0.07031475  0.51080412  1.0
  O  O10777  1  0.73695494  0.23698141  0.51080412  1.0
  O  O10778  1  0.73695494  0.40364808  0.51080412  1.0
  O  O10779  1  0.73695494  0.57031475  0.51080412  1.0
  O  O10780  1  0.73695494  0.73698141  0.51080412  1.0
  O  O10781  1  0.73695494  0.90364808  0.51080412  1.0
  O  O10782  1  0.82028827  0.07031475  0.51080412  1.0
  O  O10783  1  0.82028827  0.23698141  0.51080412  1.0
  O  O10784  1  0.82028827  0.40364808  0.51080412  1.0
  O  O10785  1  0.82028827  0.57031475  0.51080412  1.0
  O  O10786  1  0.82028827  0.73698141  0.51080412  1.0
  O  O10787  1  0.82028827  0.90364808  0.51080412  1.0
  O  O10788  1  0.90362161  0.07031475  0.51080412  1.0
  O  O10789  1  0.90362161  0.23698141  0.51080412  1.0
  O  O10790  1  0.90362161  0.40364808  0.51080412  1.0
  O  O10791  1  0.90362161  0.57031475  0.51080412  1.0
  O  O10792  1  0.90362161  0.73698141  0.51080412  1.0
  O  O10793  1  0.90362161  0.90364808  0.51080412  1.0
  O  O10794  1  0.98695494  0.07031475  0.51080412  1.0
  O  O10795  1  0.98695494  0.23698141  0.51080412  1.0
  O  O10796  1  0.98695494  0.40364808  0.51080412  1.0
  O  O10797  1  0.98695494  0.57031475  0.51080412  1.0
  O  O10798  1  0.98695494  0.73698141  0.51080412  1.0
  O  O10799  1  0.98695494  0.90364808  0.51080412  1.0
  O  O10800  1  0.04647875  0.05840998  0.58223269  1.0
  O  O10801  1  0.04647875  0.22507665  0.58223269  1.0
  O  O10802  1  0.04647875  0.39174332  0.58223269  1.0
  O  O10803  1  0.04647875  0.55840998  0.58223269  1.0
  O  O10804  1  0.04647875  0.72507665  0.58223269  1.0
  O  O10805  1  0.04647875  0.89174332  0.58223269  1.0
  O  O10806  1  0.12981208  0.05840998  0.58223269  1.0
  O  O10807  1  0.12981208  0.22507665  0.58223269  1.0
  O  O10808  1  0.12981208  0.39174332  0.58223269  1.0
  O  O10809  1  0.12981208  0.55840998  0.58223269  1.0
  O  O10810  1  0.12981208  0.72507665  0.58223269  1.0
  O  O10811  1  0.12981208  0.89174332  0.58223269  1.0
  O  O10812  1  0.21314542  0.05840998  0.58223269  1.0
  O  O10813  1  0.21314542  0.22507665  0.58223269  1.0
  O  O10814  1  0.21314542  0.39174332  0.58223269  1.0
  O  O10815  1  0.21314542  0.55840998  0.58223269  1.0
  O  O10816  1  0.21314542  0.72507665  0.58223269  1.0
  O  O10817  1  0.21314542  0.89174332  0.58223269  1.0
  O  O10818  1  0.29647875  0.05840998  0.58223269  1.0
  O  O10819  1  0.29647875  0.22507665  0.58223269  1.0
  O  O10820  1  0.29647875  0.39174332  0.58223269  1.0
  O  O10821  1  0.29647875  0.55840998  0.58223269  1.0
  O  O10822  1  0.29647875  0.72507665  0.58223269  1.0
  O  O10823  1  0.29647875  0.89174332  0.58223269  1.0
  O  O10824  1  0.37981208  0.05840998  0.58223269  1.0
  O  O10825  1  0.37981208  0.22507665  0.58223269  1.0
  O  O10826  1  0.37981208  0.39174332  0.58223269  1.0
  O  O10827  1  0.37981208  0.55840998  0.58223269  1.0
  O  O10828  1  0.37981208  0.72507665  0.58223269  1.0
  O  O10829  1  0.37981208  0.89174332  0.58223269  1.0
  O  O10830  1  0.46314542  0.05840998  0.58223269  1.0
  O  O10831  1  0.46314542  0.22507665  0.58223269  1.0
  O  O10832  1  0.46314542  0.39174332  0.58223269  1.0
  O  O10833  1  0.46314542  0.55840998  0.58223269  1.0
  O  O10834  1  0.46314542  0.72507665  0.58223269  1.0
  O  O10835  1  0.46314542  0.89174332  0.58223269  1.0
  O  O10836  1  0.54647875  0.05840998  0.58223269  1.0
  O  O10837  1  0.54647875  0.22507665  0.58223269  1.0
  O  O10838  1  0.54647875  0.39174332  0.58223269  1.0
  O  O10839  1  0.54647875  0.55840998  0.58223269  1.0
  O  O10840  1  0.54647875  0.72507665  0.58223269  1.0
  O  O10841  1  0.54647875  0.89174332  0.58223269  1.0
  O  O10842  1  0.62981208  0.05840998  0.58223269  1.0
  O  O10843  1  0.62981208  0.22507665  0.58223269  1.0
  O  O10844  1  0.62981208  0.39174332  0.58223269  1.0
  O  O10845  1  0.62981208  0.55840998  0.58223269  1.0
  O  O10846  1  0.62981208  0.72507665  0.58223269  1.0
  O  O10847  1  0.62981208  0.89174332  0.58223269  1.0
  O  O10848  1  0.71314542  0.05840998  0.58223269  1.0
  O  O10849  1  0.71314542  0.22507665  0.58223269  1.0
  O  O10850  1  0.71314542  0.39174332  0.58223269  1.0
  O  O10851  1  0.71314542  0.55840998  0.58223269  1.0
  O  O10852  1  0.71314542  0.72507665  0.58223269  1.0
  O  O10853  1  0.71314542  0.89174332  0.58223269  1.0
  O  O10854  1  0.79647875  0.05840998  0.58223269  1.0
  O  O10855  1  0.79647875  0.22507665  0.58223269  1.0
  O  O10856  1  0.79647875  0.39174332  0.58223269  1.0
  O  O10857  1  0.79647875  0.55840998  0.58223269  1.0
  O  O10858  1  0.79647875  0.72507665  0.58223269  1.0
  O  O10859  1  0.79647875  0.89174332  0.58223269  1.0
  O  O10860  1  0.87981208  0.05840998  0.58223269  1.0
  O  O10861  1  0.87981208  0.22507665  0.58223269  1.0
  O  O10862  1  0.87981208  0.39174332  0.58223269  1.0
  O  O10863  1  0.87981208  0.55840998  0.58223269  1.0
  O  O10864  1  0.87981208  0.72507665  0.58223269  1.0
  O  O10865  1  0.87981208  0.89174332  0.58223269  1.0
  O  O10866  1  0.96314542  0.05840998  0.58223269  1.0
  O  O10867  1  0.96314542  0.22507665  0.58223269  1.0
  O  O10868  1  0.96314542  0.39174332  0.58223269  1.0
  O  O10869  1  0.96314542  0.55840998  0.58223269  1.0
  O  O10870  1  0.96314542  0.72507665  0.58223269  1.0
  O  O10871  1  0.96314542  0.89174332  0.58223269  1.0
  O  O10872  1  0.06854726  0.14430582  0.63722336  1.0
  O  O10873  1  0.06854726  0.31097248  0.63722336  1.0
  O  O10874  1  0.06854726  0.47763915  0.63722336  1.0
  O  O10875  1  0.06854726  0.64430582  0.63722336  1.0
  O  O10876  1  0.06854726  0.81097248  0.63722336  1.0
  O  O10877  1  0.06854726  0.97763915  0.63722336  1.0
  O  O10878  1  0.15188059  0.14430582  0.63722336  1.0
  O  O10879  1  0.15188059  0.31097248  0.63722336  1.0
  O  O10880  1  0.15188059  0.47763915  0.63722336  1.0
  O  O10881  1  0.15188059  0.64430582  0.63722336  1.0
  O  O10882  1  0.15188059  0.81097248  0.63722336  1.0
  O  O10883  1  0.15188059  0.97763915  0.63722336  1.0
  O  O10884  1  0.23521392  0.14430582  0.63722336  1.0
  O  O10885  1  0.23521392  0.31097248  0.63722336  1.0
  O  O10886  1  0.23521392  0.47763915  0.63722336  1.0
  O  O10887  1  0.23521392  0.64430582  0.63722336  1.0
  O  O10888  1  0.23521392  0.81097248  0.63722336  1.0
  O  O10889  1  0.23521392  0.97763915  0.63722336  1.0
  O  O10890  1  0.31854726  0.14430582  0.63722336  1.0
  O  O10891  1  0.31854726  0.31097248  0.63722336  1.0
  O  O10892  1  0.31854726  0.47763915  0.63722336  1.0
  O  O10893  1  0.31854726  0.64430582  0.63722336  1.0
  O  O10894  1  0.31854726  0.81097248  0.63722336  1.0
  O  O10895  1  0.31854726  0.97763915  0.63722336  1.0
  O  O10896  1  0.40188059  0.14430582  0.63722336  1.0
  O  O10897  1  0.40188059  0.31097248  0.63722336  1.0
  O  O10898  1  0.40188059  0.47763915  0.63722336  1.0
  O  O10899  1  0.40188059  0.64430582  0.63722336  1.0
  O  O10900  1  0.40188059  0.81097248  0.63722336  1.0
  O  O10901  1  0.40188059  0.97763915  0.63722336  1.0
  O  O10902  1  0.48521392  0.14430582  0.63722336  1.0
  O  O10903  1  0.48521392  0.31097248  0.63722336  1.0
  O  O10904  1  0.48521392  0.47763915  0.63722336  1.0
  O  O10905  1  0.48521392  0.64430582  0.63722336  1.0
  O  O10906  1  0.48521392  0.81097248  0.63722336  1.0
  O  O10907  1  0.48521392  0.97763915  0.63722336  1.0
  O  O10908  1  0.56854726  0.14430582  0.63722336  1.0
  O  O10909  1  0.56854726  0.31097248  0.63722336  1.0
  O  O10910  1  0.56854726  0.47763915  0.63722336  1.0
  O  O10911  1  0.56854726  0.64430582  0.63722336  1.0
  O  O10912  1  0.56854726  0.81097248  0.63722336  1.0
  O  O10913  1  0.56854726  0.97763915  0.63722336  1.0
  O  O10914  1  0.65188059  0.14430582  0.63722336  1.0
  O  O10915  1  0.65188059  0.31097248  0.63722336  1.0
  O  O10916  1  0.65188059  0.47763915  0.63722336  1.0
  O  O10917  1  0.65188059  0.64430582  0.63722336  1.0
  O  O10918  1  0.65188059  0.81097248  0.63722336  1.0
  O  O10919  1  0.65188059  0.97763915  0.63722336  1.0
  O  O10920  1  0.73521392  0.14430582  0.63722336  1.0
  O  O10921  1  0.73521392  0.31097248  0.63722336  1.0
  O  O10922  1  0.73521392  0.47763915  0.63722336  1.0
  O  O10923  1  0.73521392  0.64430582  0.63722336  1.0
  O  O10924  1  0.73521392  0.81097248  0.63722336  1.0
  O  O10925  1  0.73521392  0.97763915  0.63722336  1.0
  O  O10926  1  0.81854726  0.14430582  0.63722336  1.0
  O  O10927  1  0.81854726  0.31097248  0.63722336  1.0
  O  O10928  1  0.81854726  0.47763915  0.63722336  1.0
  O  O10929  1  0.81854726  0.64430582  0.63722336  1.0
  O  O10930  1  0.81854726  0.81097248  0.63722336  1.0
  O  O10931  1  0.81854726  0.97763915  0.63722336  1.0
  O  O10932  1  0.90188059  0.14430582  0.63722336  1.0
  O  O10933  1  0.90188059  0.31097248  0.63722336  1.0
  O  O10934  1  0.90188059  0.47763915  0.63722336  1.0
  O  O10935  1  0.90188059  0.64430582  0.63722336  1.0
  O  O10936  1  0.90188059  0.81097248  0.63722336  1.0
  O  O10937  1  0.90188059  0.97763915  0.63722336  1.0
  O  O10938  1  0.98521392  0.14430582  0.63722336  1.0
  O  O10939  1  0.98521392  0.31097248  0.63722336  1.0
  O  O10940  1  0.98521392  0.47763915  0.63722336  1.0
  O  O10941  1  0.98521392  0.64430582  0.63722336  1.0
  O  O10942  1  0.98521392  0.81097248  0.63722336  1.0
  O  O10943  1  0.98521392  0.97763915  0.63722336  1.0
  O  O10944  1  0.00902345  0.15621058  0.56579479  1.0
  O  O10945  1  0.00902345  0.32287724  0.56579479  1.0
  O  O10946  1  0.00902345  0.48954391  0.56579479  1.0
  O  O10947  1  0.00902345  0.65621058  0.56579479  1.0
  O  O10948  1  0.00902345  0.82287724  0.56579479  1.0
  O  O10949  1  0.00902345  0.98954391  0.56579479  1.0
  O  O10950  1  0.09235678  0.15621058  0.56579479  1.0
  O  O10951  1  0.09235678  0.32287724  0.56579479  1.0
  O  O10952  1  0.09235678  0.48954391  0.56579479  1.0
  O  O10953  1  0.09235678  0.65621058  0.56579479  1.0
  O  O10954  1  0.09235678  0.82287724  0.56579479  1.0
  O  O10955  1  0.09235678  0.98954391  0.56579479  1.0
  O  O10956  1  0.17569011  0.15621058  0.56579479  1.0
  O  O10957  1  0.17569011  0.32287724  0.56579479  1.0
  O  O10958  1  0.17569011  0.48954391  0.56579479  1.0
  O  O10959  1  0.17569011  0.65621058  0.56579479  1.0
  O  O10960  1  0.17569011  0.82287724  0.56579479  1.0
  O  O10961  1  0.17569011  0.98954391  0.56579479  1.0
  O  O10962  1  0.25902345  0.15621058  0.56579479  1.0
  O  O10963  1  0.25902345  0.32287724  0.56579479  1.0
  O  O10964  1  0.25902345  0.48954391  0.56579479  1.0
  O  O10965  1  0.25902345  0.65621058  0.56579479  1.0
  O  O10966  1  0.25902345  0.82287724  0.56579479  1.0
  O  O10967  1  0.25902345  0.98954391  0.56579479  1.0
  O  O10968  1  0.34235678  0.15621058  0.56579479  1.0
  O  O10969  1  0.34235678  0.32287724  0.56579479  1.0
  O  O10970  1  0.34235678  0.48954391  0.56579479  1.0
  O  O10971  1  0.34235678  0.65621058  0.56579479  1.0
  O  O10972  1  0.34235678  0.82287724  0.56579479  1.0
  O  O10973  1  0.34235678  0.98954391  0.56579479  1.0
  O  O10974  1  0.42569011  0.15621058  0.56579479  1.0
  O  O10975  1  0.42569011  0.32287724  0.56579479  1.0
  O  O10976  1  0.42569011  0.48954391  0.56579479  1.0
  O  O10977  1  0.42569011  0.65621058  0.56579479  1.0
  O  O10978  1  0.42569011  0.82287724  0.56579479  1.0
  O  O10979  1  0.42569011  0.98954391  0.56579479  1.0
  O  O10980  1  0.50902345  0.15621058  0.56579479  1.0
  O  O10981  1  0.50902345  0.32287724  0.56579479  1.0
  O  O10982  1  0.50902345  0.48954391  0.56579479  1.0
  O  O10983  1  0.50902345  0.65621058  0.56579479  1.0
  O  O10984  1  0.50902345  0.82287724  0.56579479  1.0
  O  O10985  1  0.50902345  0.98954391  0.56579479  1.0
  O  O10986  1  0.59235678  0.15621058  0.56579479  1.0
  O  O10987  1  0.59235678  0.32287724  0.56579479  1.0
  O  O10988  1  0.59235678  0.48954391  0.56579479  1.0
  O  O10989  1  0.59235678  0.65621058  0.56579479  1.0
  O  O10990  1  0.59235678  0.82287724  0.56579479  1.0
  O  O10991  1  0.59235678  0.98954391  0.56579479  1.0
  O  O10992  1  0.67569011  0.15621058  0.56579479  1.0
  O  O10993  1  0.67569011  0.32287724  0.56579479  1.0
  O  O10994  1  0.67569011  0.48954391  0.56579479  1.0
  O  O10995  1  0.67569011  0.65621058  0.56579479  1.0
  O  O10996  1  0.67569011  0.82287724  0.56579479  1.0
  O  O10997  1  0.67569011  0.98954391  0.56579479  1.0
  O  O10998  1  0.75902345  0.15621058  0.56579479  1.0
  O  O10999  1  0.75902345  0.32287724  0.56579479  1.0
  O  O11000  1  0.75902345  0.48954391  0.56579479  1.0
  O  O11001  1  0.75902345  0.65621058  0.56579479  1.0
  O  O11002  1  0.75902345  0.82287724  0.56579479  1.0
  O  O11003  1  0.75902345  0.98954391  0.56579479  1.0
  O  O11004  1  0.84235678  0.15621058  0.56579479  1.0
  O  O11005  1  0.84235678  0.32287724  0.56579479  1.0
  O  O11006  1  0.84235678  0.48954391  0.56579479  1.0
  O  O11007  1  0.84235678  0.65621058  0.56579479  1.0
  O  O11008  1  0.84235678  0.82287724  0.56579479  1.0
  O  O11009  1  0.84235678  0.98954391  0.56579479  1.0
  O  O11010  1  0.92569011  0.15621058  0.56579479  1.0
  O  O11011  1  0.92569011  0.32287724  0.56579479  1.0
  O  O11012  1  0.92569011  0.48954391  0.56579479  1.0
  O  O11013  1  0.92569011  0.65621058  0.56579479  1.0
  O  O11014  1  0.92569011  0.82287724  0.56579479  1.0
  O  O11015  1  0.92569011  0.98954391  0.56579479  1.0
  O  O11016  1  0.03233213  0.07580453  0.62287691  1.0
  O  O11017  1  0.03233213  0.24247120  0.62287691  1.0
  O  O11018  1  0.03233213  0.40913786  0.62287691  1.0
  O  O11019  1  0.03233213  0.57580453  0.62287691  1.0
  O  O11020  1  0.03233213  0.74247120  0.62287691  1.0
  O  O11021  1  0.03233213  0.90913786  0.62287691  1.0
  O  O11022  1  0.11566546  0.07580453  0.62287691  1.0
  O  O11023  1  0.11566546  0.24247120  0.62287691  1.0
  O  O11024  1  0.11566546  0.40913786  0.62287691  1.0
  O  O11025  1  0.11566546  0.57580453  0.62287691  1.0
  O  O11026  1  0.11566546  0.74247120  0.62287691  1.0
  O  O11027  1  0.11566546  0.90913786  0.62287691  1.0
  O  O11028  1  0.19899879  0.07580453  0.62287691  1.0
  O  O11029  1  0.19899879  0.24247120  0.62287691  1.0
  O  O11030  1  0.19899879  0.40913786  0.62287691  1.0
  O  O11031  1  0.19899879  0.57580453  0.62287691  1.0
  O  O11032  1  0.19899879  0.74247120  0.62287691  1.0
  O  O11033  1  0.19899879  0.90913786  0.62287691  1.0
  O  O11034  1  0.28233213  0.07580453  0.62287691  1.0
  O  O11035  1  0.28233213  0.24247120  0.62287691  1.0
  O  O11036  1  0.28233213  0.40913786  0.62287691  1.0
  O  O11037  1  0.28233213  0.57580453  0.62287691  1.0
  O  O11038  1  0.28233213  0.74247120  0.62287691  1.0
  O  O11039  1  0.28233213  0.90913786  0.62287691  1.0
  O  O11040  1  0.36566546  0.07580453  0.62287691  1.0
  O  O11041  1  0.36566546  0.24247120  0.62287691  1.0
  O  O11042  1  0.36566546  0.40913786  0.62287691  1.0
  O  O11043  1  0.36566546  0.57580453  0.62287691  1.0
  O  O11044  1  0.36566546  0.74247120  0.62287691  1.0
  O  O11045  1  0.36566546  0.90913786  0.62287691  1.0
  O  O11046  1  0.44899879  0.07580453  0.62287691  1.0
  O  O11047  1  0.44899879  0.24247120  0.62287691  1.0
  O  O11048  1  0.44899879  0.40913786  0.62287691  1.0
  O  O11049  1  0.44899879  0.57580453  0.62287691  1.0
  O  O11050  1  0.44899879  0.74247120  0.62287691  1.0
  O  O11051  1  0.44899879  0.90913786  0.62287691  1.0
  O  O11052  1  0.53233213  0.07580453  0.62287691  1.0
  O  O11053  1  0.53233213  0.24247120  0.62287691  1.0
  O  O11054  1  0.53233213  0.40913786  0.62287691  1.0
  O  O11055  1  0.53233213  0.57580453  0.62287691  1.0
  O  O11056  1  0.53233213  0.74247120  0.62287691  1.0
  O  O11057  1  0.53233213  0.90913786  0.62287691  1.0
  O  O11058  1  0.61566546  0.07580453  0.62287691  1.0
  O  O11059  1  0.61566546  0.24247120  0.62287691  1.0
  O  O11060  1  0.61566546  0.40913786  0.62287691  1.0
  O  O11061  1  0.61566546  0.57580453  0.62287691  1.0
  O  O11062  1  0.61566546  0.74247120  0.62287691  1.0
  O  O11063  1  0.61566546  0.90913786  0.62287691  1.0
  O  O11064  1  0.69899879  0.07580453  0.62287691  1.0
  O  O11065  1  0.69899879  0.24247120  0.62287691  1.0
  O  O11066  1  0.69899879  0.40913786  0.62287691  1.0
  O  O11067  1  0.69899879  0.57580453  0.62287691  1.0
  O  O11068  1  0.69899879  0.74247120  0.62287691  1.0
  O  O11069  1  0.69899879  0.90913786  0.62287691  1.0
  O  O11070  1  0.78233213  0.07580453  0.62287691  1.0
  O  O11071  1  0.78233213  0.24247120  0.62287691  1.0
  O  O11072  1  0.78233213  0.40913786  0.62287691  1.0
  O  O11073  1  0.78233213  0.57580453  0.62287691  1.0
  O  O11074  1  0.78233213  0.74247120  0.62287691  1.0
  O  O11075  1  0.78233213  0.90913786  0.62287691  1.0
  O  O11076  1  0.86566546  0.07580453  0.62287691  1.0
  O  O11077  1  0.86566546  0.24247120  0.62287691  1.0
  O  O11078  1  0.86566546  0.40913786  0.62287691  1.0
  O  O11079  1  0.86566546  0.57580453  0.62287691  1.0
  O  O11080  1  0.86566546  0.74247120  0.62287691  1.0
  O  O11081  1  0.86566546  0.90913786  0.62287691  1.0
  O  O11082  1  0.94899879  0.07580453  0.62287691  1.0
  O  O11083  1  0.94899879  0.24247120  0.62287691  1.0
  O  O11084  1  0.94899879  0.40913786  0.62287691  1.0
  O  O11085  1  0.94899879  0.57580453  0.62287691  1.0
  O  O11086  1  0.94899879  0.74247120  0.62287691  1.0
  O  O11087  1  0.94899879  0.90913786  0.62287691  1.0
  O  O11088  1  0.05614165  0.08770929  0.55144834  1.0
  O  O11089  1  0.05614165  0.25437596  0.55144834  1.0
  O  O11090  1  0.05614165  0.42104262  0.55144834  1.0
  O  O11091  1  0.05614165  0.58770929  0.55144834  1.0
  O  O11092  1  0.05614165  0.75437596  0.55144834  1.0
  O  O11093  1  0.05614165  0.92104262  0.55144834  1.0
  O  O11094  1  0.13947498  0.08770929  0.55144834  1.0
  O  O11095  1  0.13947498  0.25437596  0.55144834  1.0
  O  O11096  1  0.13947498  0.42104262  0.55144834  1.0
  O  O11097  1  0.13947498  0.58770929  0.55144834  1.0
  O  O11098  1  0.13947498  0.75437596  0.55144834  1.0
  O  O11099  1  0.13947498  0.92104262  0.55144834  1.0
  O  O11100  1  0.22280832  0.08770929  0.55144834  1.0
  O  O11101  1  0.22280832  0.25437596  0.55144834  1.0
  O  O11102  1  0.22280832  0.42104262  0.55144834  1.0
  O  O11103  1  0.22280832  0.58770929  0.55144834  1.0
  O  O11104  1  0.22280832  0.75437596  0.55144834  1.0
  O  O11105  1  0.22280832  0.92104262  0.55144834  1.0
  O  O11106  1  0.30614165  0.08770929  0.55144834  1.0
  O  O11107  1  0.30614165  0.25437596  0.55144834  1.0
  O  O11108  1  0.30614165  0.42104262  0.55144834  1.0
  O  O11109  1  0.30614165  0.58770929  0.55144834  1.0
  O  O11110  1  0.30614165  0.75437596  0.55144834  1.0
  O  O11111  1  0.30614165  0.92104262  0.55144834  1.0
  O  O11112  1  0.38947498  0.08770929  0.55144834  1.0
  O  O11113  1  0.38947498  0.25437596  0.55144834  1.0
  O  O11114  1  0.38947498  0.42104262  0.55144834  1.0
  O  O11115  1  0.38947498  0.58770929  0.55144834  1.0
  O  O11116  1  0.38947498  0.75437596  0.55144834  1.0
  O  O11117  1  0.38947498  0.92104262  0.55144834  1.0
  O  O11118  1  0.47280832  0.08770929  0.55144834  1.0
  O  O11119  1  0.47280832  0.25437596  0.55144834  1.0
  O  O11120  1  0.47280832  0.42104262  0.55144834  1.0
  O  O11121  1  0.47280832  0.58770929  0.55144834  1.0
  O  O11122  1  0.47280832  0.75437596  0.55144834  1.0
  O  O11123  1  0.47280832  0.92104262  0.55144834  1.0
  O  O11124  1  0.55614165  0.08770929  0.55144834  1.0
  O  O11125  1  0.55614165  0.25437596  0.55144834  1.0
  O  O11126  1  0.55614165  0.42104262  0.55144834  1.0
  O  O11127  1  0.55614165  0.58770929  0.55144834  1.0
  O  O11128  1  0.55614165  0.75437596  0.55144834  1.0
  O  O11129  1  0.55614165  0.92104262  0.55144834  1.0
  O  O11130  1  0.63947498  0.08770929  0.55144834  1.0
  O  O11131  1  0.63947498  0.25437596  0.55144834  1.0
  O  O11132  1  0.63947498  0.42104262  0.55144834  1.0
  O  O11133  1  0.63947498  0.58770929  0.55144834  1.0
  O  O11134  1  0.63947498  0.75437596  0.55144834  1.0
  O  O11135  1  0.63947498  0.92104262  0.55144834  1.0
  O  O11136  1  0.72280832  0.08770929  0.55144834  1.0
  O  O11137  1  0.72280832  0.25437596  0.55144834  1.0
  O  O11138  1  0.72280832  0.42104262  0.55144834  1.0
  O  O11139  1  0.72280832  0.58770929  0.55144834  1.0
  O  O11140  1  0.72280832  0.75437596  0.55144834  1.0
  O  O11141  1  0.72280832  0.92104262  0.55144834  1.0
  O  O11142  1  0.80614165  0.08770929  0.55144834  1.0
  O  O11143  1  0.80614165  0.25437596  0.55144834  1.0
  O  O11144  1  0.80614165  0.42104262  0.55144834  1.0
  O  O11145  1  0.80614165  0.58770929  0.55144834  1.0
  O  O11146  1  0.80614165  0.75437596  0.55144834  1.0
  O  O11147  1  0.80614165  0.92104262  0.55144834  1.0
  O  O11148  1  0.88947498  0.08770929  0.55144834  1.0
  O  O11149  1  0.88947498  0.25437596  0.55144834  1.0
  O  O11150  1  0.88947498  0.42104262  0.55144834  1.0
  O  O11151  1  0.88947498  0.58770929  0.55144834  1.0
  O  O11152  1  0.88947498  0.75437596  0.55144834  1.0
  O  O11153  1  0.88947498  0.92104262  0.55144834  1.0
  O  O11154  1  0.97280832  0.08770929  0.55144834  1.0
  O  O11155  1  0.97280832  0.25437596  0.55144834  1.0
  O  O11156  1  0.97280832  0.42104262  0.55144834  1.0
  O  O11157  1  0.97280832  0.58770929  0.55144834  1.0
  O  O11158  1  0.97280832  0.75437596  0.55144834  1.0
  O  O11159  1  0.97280832  0.92104262  0.55144834  1.0
  O  O11160  1  0.07454607  0.09797213  0.62625667  1.0
  O  O11161  1  0.07454607  0.26463879  0.62625667  1.0
  O  O11162  1  0.07454607  0.43130546  0.62625667  1.0
  O  O11163  1  0.07454607  0.59797213  0.62625667  1.0
  O  O11164  1  0.07454607  0.76463879  0.62625667  1.0
  O  O11165  1  0.07454607  0.93130546  0.62625667  1.0
  O  O11166  1  0.15787941  0.09797213  0.62625667  1.0
  O  O11167  1  0.15787941  0.26463879  0.62625667  1.0
  O  O11168  1  0.15787941  0.43130546  0.62625667  1.0
  O  O11169  1  0.15787941  0.59797213  0.62625667  1.0
  O  O11170  1  0.15787941  0.76463879  0.62625667  1.0
  O  O11171  1  0.15787941  0.93130546  0.62625667  1.0
  O  O11172  1  0.24121274  0.09797213  0.62625667  1.0
  O  O11173  1  0.24121274  0.26463879  0.62625667  1.0
  O  O11174  1  0.24121274  0.43130546  0.62625667  1.0
  O  O11175  1  0.24121274  0.59797213  0.62625667  1.0
  O  O11176  1  0.24121274  0.76463879  0.62625667  1.0
  O  O11177  1  0.24121274  0.93130546  0.62625667  1.0
  O  O11178  1  0.32454607  0.09797213  0.62625667  1.0
  O  O11179  1  0.32454607  0.26463879  0.62625667  1.0
  O  O11180  1  0.32454607  0.43130546  0.62625667  1.0
  O  O11181  1  0.32454607  0.59797213  0.62625667  1.0
  O  O11182  1  0.32454607  0.76463879  0.62625667  1.0
  O  O11183  1  0.32454607  0.93130546  0.62625667  1.0
  O  O11184  1  0.40787941  0.09797213  0.62625667  1.0
  O  O11185  1  0.40787941  0.26463879  0.62625667  1.0
  O  O11186  1  0.40787941  0.43130546  0.62625667  1.0
  O  O11187  1  0.40787941  0.59797213  0.62625667  1.0
  O  O11188  1  0.40787941  0.76463879  0.62625667  1.0
  O  O11189  1  0.40787941  0.93130546  0.62625667  1.0
  O  O11190  1  0.49121274  0.09797213  0.62625667  1.0
  O  O11191  1  0.49121274  0.26463879  0.62625667  1.0
  O  O11192  1  0.49121274  0.43130546  0.62625667  1.0
  O  O11193  1  0.49121274  0.59797213  0.62625667  1.0
  O  O11194  1  0.49121274  0.76463879  0.62625667  1.0
  O  O11195  1  0.49121274  0.93130546  0.62625667  1.0
  O  O11196  1  0.57454607  0.09797213  0.62625667  1.0
  O  O11197  1  0.57454607  0.26463879  0.62625667  1.0
  O  O11198  1  0.57454607  0.43130546  0.62625667  1.0
  O  O11199  1  0.57454607  0.59797213  0.62625667  1.0
  O  O11200  1  0.57454607  0.76463879  0.62625667  1.0
  O  O11201  1  0.57454607  0.93130546  0.62625667  1.0
  O  O11202  1  0.65787941  0.09797213  0.62625667  1.0
  O  O11203  1  0.65787941  0.26463879  0.62625667  1.0
  O  O11204  1  0.65787941  0.43130546  0.62625667  1.0
  O  O11205  1  0.65787941  0.59797213  0.62625667  1.0
  O  O11206  1  0.65787941  0.76463879  0.62625667  1.0
  O  O11207  1  0.65787941  0.93130546  0.62625667  1.0
  O  O11208  1  0.74121274  0.09797213  0.62625667  1.0
  O  O11209  1  0.74121274  0.26463879  0.62625667  1.0
  O  O11210  1  0.74121274  0.43130546  0.62625667  1.0
  O  O11211  1  0.74121274  0.59797213  0.62625667  1.0
  O  O11212  1  0.74121274  0.76463879  0.62625667  1.0
  O  O11213  1  0.74121274  0.93130546  0.62625667  1.0
  O  O11214  1  0.82454607  0.09797213  0.62625667  1.0
  O  O11215  1  0.82454607  0.26463879  0.62625667  1.0
  O  O11216  1  0.82454607  0.43130546  0.62625667  1.0
  O  O11217  1  0.82454607  0.59797213  0.62625667  1.0
  O  O11218  1  0.82454607  0.76463879  0.62625667  1.0
  O  O11219  1  0.82454607  0.93130546  0.62625667  1.0
  O  O11220  1  0.90787941  0.09797213  0.62625667  1.0
  O  O11221  1  0.90787941  0.26463879  0.62625667  1.0
  O  O11222  1  0.90787941  0.43130546  0.62625667  1.0
  O  O11223  1  0.90787941  0.59797213  0.62625667  1.0
  O  O11224  1  0.90787941  0.76463879  0.62625667  1.0
  O  O11225  1  0.90787941  0.93130546  0.62625667  1.0
  O  O11226  1  0.99121274  0.09797213  0.62625667  1.0
  O  O11227  1  0.99121274  0.26463879  0.62625667  1.0
  O  O11228  1  0.99121274  0.43130546  0.62625667  1.0
  O  O11229  1  0.99121274  0.59797213  0.62625667  1.0
  O  O11230  1  0.99121274  0.76463879  0.62625667  1.0
  O  O11231  1  0.99121274  0.93130546  0.62625667  1.0
  O  O11232  1  0.01502226  0.10987689  0.55482810  1.0
  O  O11233  1  0.01502226  0.27654356  0.55482810  1.0
  O  O11234  1  0.01502226  0.44321022  0.55482810  1.0
  O  O11235  1  0.01502226  0.60987689  0.55482810  1.0
  O  O11236  1  0.01502226  0.77654356  0.55482810  1.0
  O  O11237  1  0.01502226  0.94321022  0.55482810  1.0
  O  O11238  1  0.09835560  0.10987689  0.55482810  1.0
  O  O11239  1  0.09835560  0.27654356  0.55482810  1.0
  O  O11240  1  0.09835560  0.44321022  0.55482810  1.0
  O  O11241  1  0.09835560  0.60987689  0.55482810  1.0
  O  O11242  1  0.09835560  0.77654356  0.55482810  1.0
  O  O11243  1  0.09835560  0.94321022  0.55482810  1.0
  O  O11244  1  0.18168893  0.10987689  0.55482810  1.0
  O  O11245  1  0.18168893  0.27654356  0.55482810  1.0
  O  O11246  1  0.18168893  0.44321022  0.55482810  1.0
  O  O11247  1  0.18168893  0.60987689  0.55482810  1.0
  O  O11248  1  0.18168893  0.77654356  0.55482810  1.0
  O  O11249  1  0.18168893  0.94321022  0.55482810  1.0
  O  O11250  1  0.26502226  0.10987689  0.55482810  1.0
  O  O11251  1  0.26502226  0.27654356  0.55482810  1.0
  O  O11252  1  0.26502226  0.44321022  0.55482810  1.0
  O  O11253  1  0.26502226  0.60987689  0.55482810  1.0
  O  O11254  1  0.26502226  0.77654356  0.55482810  1.0
  O  O11255  1  0.26502226  0.94321022  0.55482810  1.0
  O  O11256  1  0.34835560  0.10987689  0.55482810  1.0
  O  O11257  1  0.34835560  0.27654356  0.55482810  1.0
  O  O11258  1  0.34835560  0.44321022  0.55482810  1.0
  O  O11259  1  0.34835560  0.60987689  0.55482810  1.0
  O  O11260  1  0.34835560  0.77654356  0.55482810  1.0
  O  O11261  1  0.34835560  0.94321022  0.55482810  1.0
  O  O11262  1  0.43168893  0.10987689  0.55482810  1.0
  O  O11263  1  0.43168893  0.27654356  0.55482810  1.0
  O  O11264  1  0.43168893  0.44321022  0.55482810  1.0
  O  O11265  1  0.43168893  0.60987689  0.55482810  1.0
  O  O11266  1  0.43168893  0.77654356  0.55482810  1.0
  O  O11267  1  0.43168893  0.94321022  0.55482810  1.0
  O  O11268  1  0.51502226  0.10987689  0.55482810  1.0
  O  O11269  1  0.51502226  0.27654356  0.55482810  1.0
  O  O11270  1  0.51502226  0.44321022  0.55482810  1.0
  O  O11271  1  0.51502226  0.60987689  0.55482810  1.0
  O  O11272  1  0.51502226  0.77654356  0.55482810  1.0
  O  O11273  1  0.51502226  0.94321022  0.55482810  1.0
  O  O11274  1  0.59835560  0.10987689  0.55482810  1.0
  O  O11275  1  0.59835560  0.27654356  0.55482810  1.0
  O  O11276  1  0.59835560  0.44321022  0.55482810  1.0
  O  O11277  1  0.59835560  0.60987689  0.55482810  1.0
  O  O11278  1  0.59835560  0.77654356  0.55482810  1.0
  O  O11279  1  0.59835560  0.94321022  0.55482810  1.0
  O  O11280  1  0.68168893  0.10987689  0.55482810  1.0
  O  O11281  1  0.68168893  0.27654356  0.55482810  1.0
  O  O11282  1  0.68168893  0.44321022  0.55482810  1.0
  O  O11283  1  0.68168893  0.60987689  0.55482810  1.0
  O  O11284  1  0.68168893  0.77654356  0.55482810  1.0
  O  O11285  1  0.68168893  0.94321022  0.55482810  1.0
  O  O11286  1  0.76502226  0.10987689  0.55482810  1.0
  O  O11287  1  0.76502226  0.27654356  0.55482810  1.0
  O  O11288  1  0.76502226  0.44321022  0.55482810  1.0
  O  O11289  1  0.76502226  0.60987689  0.55482810  1.0
  O  O11290  1  0.76502226  0.77654356  0.55482810  1.0
  O  O11291  1  0.76502226  0.94321022  0.55482810  1.0
  O  O11292  1  0.84835560  0.10987689  0.55482810  1.0
  O  O11293  1  0.84835560  0.27654356  0.55482810  1.0
  O  O11294  1  0.84835560  0.44321022  0.55482810  1.0
  O  O11295  1  0.84835560  0.60987689  0.55482810  1.0
  O  O11296  1  0.84835560  0.77654356  0.55482810  1.0
  O  O11297  1  0.84835560  0.94321022  0.55482810  1.0
  O  O11298  1  0.93168893  0.10987689  0.55482810  1.0
  O  O11299  1  0.93168893  0.27654356  0.55482810  1.0
  O  O11300  1  0.93168893  0.44321022  0.55482810  1.0
  O  O11301  1  0.93168893  0.60987689  0.55482810  1.0
  O  O11302  1  0.93168893  0.77654356  0.55482810  1.0
  O  O11303  1  0.93168893  0.94321022  0.55482810  1.0
  O  O11304  1  0.02854207  0.04625706  0.50509856  1.0
  O  O11305  1  0.02854207  0.21292372  0.50509856  1.0
  O  O11306  1  0.02854207  0.37959039  0.50509856  1.0
  O  O11307  1  0.02854207  0.54625706  0.50509856  1.0
  O  O11308  1  0.02854207  0.71292372  0.50509856  1.0
  O  O11309  1  0.02854207  0.87959039  0.50509856  1.0
  O  O11310  1  0.11187540  0.04625706  0.50509856  1.0
  O  O11311  1  0.11187540  0.21292372  0.50509856  1.0
  O  O11312  1  0.11187540  0.37959039  0.50509856  1.0
  O  O11313  1  0.11187540  0.54625706  0.50509856  1.0
  O  O11314  1  0.11187540  0.71292372  0.50509856  1.0
  O  O11315  1  0.11187540  0.87959039  0.50509856  1.0
  O  O11316  1  0.19520874  0.04625706  0.50509856  1.0
  O  O11317  1  0.19520874  0.21292372  0.50509856  1.0
  O  O11318  1  0.19520874  0.37959039  0.50509856  1.0
  O  O11319  1  0.19520874  0.54625706  0.50509856  1.0
  O  O11320  1  0.19520874  0.71292372  0.50509856  1.0
  O  O11321  1  0.19520874  0.87959039  0.50509856  1.0
  O  O11322  1  0.27854207  0.04625706  0.50509856  1.0
  O  O11323  1  0.27854207  0.21292372  0.50509856  1.0
  O  O11324  1  0.27854207  0.37959039  0.50509856  1.0
  O  O11325  1  0.27854207  0.54625706  0.50509856  1.0
  O  O11326  1  0.27854207  0.71292372  0.50509856  1.0
  O  O11327  1  0.27854207  0.87959039  0.50509856  1.0
  O  O11328  1  0.36187540  0.04625706  0.50509856  1.0
  O  O11329  1  0.36187540  0.21292372  0.50509856  1.0
  O  O11330  1  0.36187540  0.37959039  0.50509856  1.0
  O  O11331  1  0.36187540  0.54625706  0.50509856  1.0
  O  O11332  1  0.36187540  0.71292372  0.50509856  1.0
  O  O11333  1  0.36187540  0.87959039  0.50509856  1.0
  O  O11334  1  0.44520874  0.04625706  0.50509856  1.0
  O  O11335  1  0.44520874  0.21292372  0.50509856  1.0
  O  O11336  1  0.44520874  0.37959039  0.50509856  1.0
  O  O11337  1  0.44520874  0.54625706  0.50509856  1.0
  O  O11338  1  0.44520874  0.71292372  0.50509856  1.0
  O  O11339  1  0.44520874  0.87959039  0.50509856  1.0
  O  O11340  1  0.52854207  0.04625706  0.50509856  1.0
  O  O11341  1  0.52854207  0.21292372  0.50509856  1.0
  O  O11342  1  0.52854207  0.37959039  0.50509856  1.0
  O  O11343  1  0.52854207  0.54625706  0.50509856  1.0
  O  O11344  1  0.52854207  0.71292372  0.50509856  1.0
  O  O11345  1  0.52854207  0.87959039  0.50509856  1.0
  O  O11346  1  0.61187540  0.04625706  0.50509856  1.0
  O  O11347  1  0.61187540  0.21292372  0.50509856  1.0
  O  O11348  1  0.61187540  0.37959039  0.50509856  1.0
  O  O11349  1  0.61187540  0.54625706  0.50509856  1.0
  O  O11350  1  0.61187540  0.71292372  0.50509856  1.0
  O  O11351  1  0.61187540  0.87959039  0.50509856  1.0
  O  O11352  1  0.69520874  0.04625706  0.50509856  1.0
  O  O11353  1  0.69520874  0.21292372  0.50509856  1.0
  O  O11354  1  0.69520874  0.37959039  0.50509856  1.0
  O  O11355  1  0.69520874  0.54625706  0.50509856  1.0
  O  O11356  1  0.69520874  0.71292372  0.50509856  1.0
  O  O11357  1  0.69520874  0.87959039  0.50509856  1.0
  O  O11358  1  0.77854207  0.04625706  0.50509856  1.0
  O  O11359  1  0.77854207  0.21292372  0.50509856  1.0
  O  O11360  1  0.77854207  0.37959039  0.50509856  1.0
  O  O11361  1  0.77854207  0.54625706  0.50509856  1.0
  O  O11362  1  0.77854207  0.71292372  0.50509856  1.0
  O  O11363  1  0.77854207  0.87959039  0.50509856  1.0
  O  O11364  1  0.86187540  0.04625706  0.50509856  1.0
  O  O11365  1  0.86187540  0.21292372  0.50509856  1.0
  O  O11366  1  0.86187540  0.37959039  0.50509856  1.0
  O  O11367  1  0.86187540  0.54625706  0.50509856  1.0
  O  O11368  1  0.86187540  0.71292372  0.50509856  1.0
  O  O11369  1  0.86187540  0.87959039  0.50509856  1.0
  O  O11370  1  0.94520874  0.04625706  0.50509856  1.0
  O  O11371  1  0.94520874  0.21292372  0.50509856  1.0
  O  O11372  1  0.94520874  0.37959039  0.50509856  1.0
  O  O11373  1  0.94520874  0.54625706  0.50509856  1.0
  O  O11374  1  0.94520874  0.71292372  0.50509856  1.0
  O  O11375  1  0.94520874  0.87959039  0.50509856  1.0
  O  O11376  1  0.00473255  0.03435229  0.57652713  1.0
  O  O11377  1  0.00473255  0.20101896  0.57652713  1.0
  O  O11378  1  0.00473255  0.36768563  0.57652713  1.0
  O  O11379  1  0.00473255  0.53435229  0.57652713  1.0
  O  O11380  1  0.00473255  0.70101896  0.57652713  1.0
  O  O11381  1  0.00473255  0.86768563  0.57652713  1.0
  O  O11382  1  0.08806588  0.03435229  0.57652713  1.0
  O  O11383  1  0.08806588  0.20101896  0.57652713  1.0
  O  O11384  1  0.08806588  0.36768563  0.57652713  1.0
  O  O11385  1  0.08806588  0.53435229  0.57652713  1.0
  O  O11386  1  0.08806588  0.70101896  0.57652713  1.0
  O  O11387  1  0.08806588  0.86768563  0.57652713  1.0
  O  O11388  1  0.17139921  0.03435229  0.57652713  1.0
  O  O11389  1  0.17139921  0.20101896  0.57652713  1.0
  O  O11390  1  0.17139921  0.36768563  0.57652713  1.0
  O  O11391  1  0.17139921  0.53435229  0.57652713  1.0
  O  O11392  1  0.17139921  0.70101896  0.57652713  1.0
  O  O11393  1  0.17139921  0.86768563  0.57652713  1.0
  O  O11394  1  0.25473255  0.03435229  0.57652713  1.0
  O  O11395  1  0.25473255  0.20101896  0.57652713  1.0
  O  O11396  1  0.25473255  0.36768563  0.57652713  1.0
  O  O11397  1  0.25473255  0.53435229  0.57652713  1.0
  O  O11398  1  0.25473255  0.70101896  0.57652713  1.0
  O  O11399  1  0.25473255  0.86768563  0.57652713  1.0
  O  O11400  1  0.33806588  0.03435229  0.57652713  1.0
  O  O11401  1  0.33806588  0.20101896  0.57652713  1.0
  O  O11402  1  0.33806588  0.36768563  0.57652713  1.0
  O  O11403  1  0.33806588  0.53435229  0.57652713  1.0
  O  O11404  1  0.33806588  0.70101896  0.57652713  1.0
  O  O11405  1  0.33806588  0.86768563  0.57652713  1.0
  O  O11406  1  0.42139921  0.03435229  0.57652713  1.0
  O  O11407  1  0.42139921  0.20101896  0.57652713  1.0
  O  O11408  1  0.42139921  0.36768563  0.57652713  1.0
  O  O11409  1  0.42139921  0.53435229  0.57652713  1.0
  O  O11410  1  0.42139921  0.70101896  0.57652713  1.0
  O  O11411  1  0.42139921  0.86768563  0.57652713  1.0
  O  O11412  1  0.50473255  0.03435229  0.57652713  1.0
  O  O11413  1  0.50473255  0.20101896  0.57652713  1.0
  O  O11414  1  0.50473255  0.36768563  0.57652713  1.0
  O  O11415  1  0.50473255  0.53435229  0.57652713  1.0
  O  O11416  1  0.50473255  0.70101896  0.57652713  1.0
  O  O11417  1  0.50473255  0.86768563  0.57652713  1.0
  O  O11418  1  0.58806588  0.03435229  0.57652713  1.0
  O  O11419  1  0.58806588  0.20101896  0.57652713  1.0
  O  O11420  1  0.58806588  0.36768563  0.57652713  1.0
  O  O11421  1  0.58806588  0.53435229  0.57652713  1.0
  O  O11422  1  0.58806588  0.70101896  0.57652713  1.0
  O  O11423  1  0.58806588  0.86768563  0.57652713  1.0
  O  O11424  1  0.67139921  0.03435229  0.57652713  1.0
  O  O11425  1  0.67139921  0.20101896  0.57652713  1.0
  O  O11426  1  0.67139921  0.36768563  0.57652713  1.0
  O  O11427  1  0.67139921  0.53435229  0.57652713  1.0
  O  O11428  1  0.67139921  0.70101896  0.57652713  1.0
  O  O11429  1  0.67139921  0.86768563  0.57652713  1.0
  O  O11430  1  0.75473255  0.03435229  0.57652713  1.0
  O  O11431  1  0.75473255  0.20101896  0.57652713  1.0
  O  O11432  1  0.75473255  0.36768563  0.57652713  1.0
  O  O11433  1  0.75473255  0.53435229  0.57652713  1.0
  O  O11434  1  0.75473255  0.70101896  0.57652713  1.0
  O  O11435  1  0.75473255  0.86768563  0.57652713  1.0
  O  O11436  1  0.83806588  0.03435229  0.57652713  1.0
  O  O11437  1  0.83806588  0.20101896  0.57652713  1.0
  O  O11438  1  0.83806588  0.36768563  0.57652713  1.0
  O  O11439  1  0.83806588  0.53435229  0.57652713  1.0
  O  O11440  1  0.83806588  0.70101896  0.57652713  1.0
  O  O11441  1  0.83806588  0.86768563  0.57652713  1.0
  O  O11442  1  0.92139921  0.03435229  0.57652713  1.0
  O  O11443  1  0.92139921  0.20101896  0.57652713  1.0
  O  O11444  1  0.92139921  0.36768563  0.57652713  1.0
  O  O11445  1  0.92139921  0.53435229  0.57652713  1.0
  O  O11446  1  0.92139921  0.70101896  0.57652713  1.0
  O  O11447  1  0.92139921  0.86768563  0.57652713  1.0
  O  O11448  1  0.03277024  0.02881901  0.61234878  1.0
  O  O11449  1  0.03277024  0.19548568  0.61234878  1.0
  O  O11450  1  0.03277024  0.36215235  0.61234878  1.0
  O  O11451  1  0.03277024  0.52881901  0.61234878  1.0
  O  O11452  1  0.03277024  0.69548568  0.61234878  1.0
  O  O11453  1  0.03277024  0.86215235  0.61234878  1.0
  O  O11454  1  0.11610358  0.02881901  0.61234878  1.0
  O  O11455  1  0.11610358  0.19548568  0.61234878  1.0
  O  O11456  1  0.11610358  0.36215235  0.61234878  1.0
  O  O11457  1  0.11610358  0.52881901  0.61234878  1.0
  O  O11458  1  0.11610358  0.69548568  0.61234878  1.0
  O  O11459  1  0.11610358  0.86215235  0.61234878  1.0
  O  O11460  1  0.19943691  0.02881901  0.61234878  1.0
  O  O11461  1  0.19943691  0.19548568  0.61234878  1.0
  O  O11462  1  0.19943691  0.36215235  0.61234878  1.0
  O  O11463  1  0.19943691  0.52881901  0.61234878  1.0
  O  O11464  1  0.19943691  0.69548568  0.61234878  1.0
  O  O11465  1  0.19943691  0.86215235  0.61234878  1.0
  O  O11466  1  0.28277024  0.02881901  0.61234878  1.0
  O  O11467  1  0.28277024  0.19548568  0.61234878  1.0
  O  O11468  1  0.28277024  0.36215235  0.61234878  1.0
  O  O11469  1  0.28277024  0.52881901  0.61234878  1.0
  O  O11470  1  0.28277024  0.69548568  0.61234878  1.0
  O  O11471  1  0.28277024  0.86215235  0.61234878  1.0
  O  O11472  1  0.36610358  0.02881901  0.61234878  1.0
  O  O11473  1  0.36610358  0.19548568  0.61234878  1.0
  O  O11474  1  0.36610358  0.36215235  0.61234878  1.0
  O  O11475  1  0.36610358  0.52881901  0.61234878  1.0
  O  O11476  1  0.36610358  0.69548568  0.61234878  1.0
  O  O11477  1  0.36610358  0.86215235  0.61234878  1.0
  O  O11478  1  0.44943691  0.02881901  0.61234878  1.0
  O  O11479  1  0.44943691  0.19548568  0.61234878  1.0
  O  O11480  1  0.44943691  0.36215235  0.61234878  1.0
  O  O11481  1  0.44943691  0.52881901  0.61234878  1.0
  O  O11482  1  0.44943691  0.69548568  0.61234878  1.0
  O  O11483  1  0.44943691  0.86215235  0.61234878  1.0
  O  O11484  1  0.53277024  0.02881901  0.61234878  1.0
  O  O11485  1  0.53277024  0.19548568  0.61234878  1.0
  O  O11486  1  0.53277024  0.36215235  0.61234878  1.0
  O  O11487  1  0.53277024  0.52881901  0.61234878  1.0
  O  O11488  1  0.53277024  0.69548568  0.61234878  1.0
  O  O11489  1  0.53277024  0.86215235  0.61234878  1.0
  O  O11490  1  0.61610358  0.02881901  0.61234878  1.0
  O  O11491  1  0.61610358  0.19548568  0.61234878  1.0
  O  O11492  1  0.61610358  0.36215235  0.61234878  1.0
  O  O11493  1  0.61610358  0.52881901  0.61234878  1.0
  O  O11494  1  0.61610358  0.69548568  0.61234878  1.0
  O  O11495  1  0.61610358  0.86215235  0.61234878  1.0
  O  O11496  1  0.69943691  0.02881901  0.61234878  1.0
  O  O11497  1  0.69943691  0.19548568  0.61234878  1.0
  O  O11498  1  0.69943691  0.36215235  0.61234878  1.0
  O  O11499  1  0.69943691  0.52881901  0.61234878  1.0
  O  O11500  1  0.69943691  0.69548568  0.61234878  1.0
  O  O11501  1  0.69943691  0.86215235  0.61234878  1.0
  O  O11502  1  0.78277024  0.02881901  0.61234878  1.0
  O  O11503  1  0.78277024  0.19548568  0.61234878  1.0
  O  O11504  1  0.78277024  0.36215235  0.61234878  1.0
  O  O11505  1  0.78277024  0.52881901  0.61234878  1.0
  O  O11506  1  0.78277024  0.69548568  0.61234878  1.0
  O  O11507  1  0.78277024  0.86215235  0.61234878  1.0
  O  O11508  1  0.86610358  0.02881901  0.61234878  1.0
  O  O11509  1  0.86610358  0.19548568  0.61234878  1.0
  O  O11510  1  0.86610358  0.36215235  0.61234878  1.0
  O  O11511  1  0.86610358  0.52881901  0.61234878  1.0
  O  O11512  1  0.86610358  0.69548568  0.61234878  1.0
  O  O11513  1  0.86610358  0.86215235  0.61234878  1.0
  O  O11514  1  0.94943691  0.02881901  0.61234878  1.0
  O  O11515  1  0.94943691  0.19548568  0.61234878  1.0
  O  O11516  1  0.94943691  0.36215235  0.61234878  1.0
  O  O11517  1  0.94943691  0.52881901  0.61234878  1.0
  O  O11518  1  0.94943691  0.69548568  0.61234878  1.0
  O  O11519  1  0.94943691  0.86215235  0.61234878  1.0
  O  O11520  1  0.05657977  0.04072377  0.54092021  1.0
  O  O11521  1  0.05657977  0.20739044  0.54092021  1.0
  O  O11522  1  0.05657977  0.37405711  0.54092021  1.0
  O  O11523  1  0.05657977  0.54072377  0.54092021  1.0
  O  O11524  1  0.05657977  0.70739044  0.54092021  1.0
  O  O11525  1  0.05657977  0.87405711  0.54092021  1.0
  O  O11526  1  0.13991310  0.04072377  0.54092021  1.0
  O  O11527  1  0.13991310  0.20739044  0.54092021  1.0
  O  O11528  1  0.13991310  0.37405711  0.54092021  1.0
  O  O11529  1  0.13991310  0.54072377  0.54092021  1.0
  O  O11530  1  0.13991310  0.70739044  0.54092021  1.0
  O  O11531  1  0.13991310  0.87405711  0.54092021  1.0
  O  O11532  1  0.22324644  0.04072377  0.54092021  1.0
  O  O11533  1  0.22324644  0.20739044  0.54092021  1.0
  O  O11534  1  0.22324644  0.37405711  0.54092021  1.0
  O  O11535  1  0.22324644  0.54072377  0.54092021  1.0
  O  O11536  1  0.22324644  0.70739044  0.54092021  1.0
  O  O11537  1  0.22324644  0.87405711  0.54092021  1.0
  O  O11538  1  0.30657977  0.04072377  0.54092021  1.0
  O  O11539  1  0.30657977  0.20739044  0.54092021  1.0
  O  O11540  1  0.30657977  0.37405711  0.54092021  1.0
  O  O11541  1  0.30657977  0.54072377  0.54092021  1.0
  O  O11542  1  0.30657977  0.70739044  0.54092021  1.0
  O  O11543  1  0.30657977  0.87405711  0.54092021  1.0
  O  O11544  1  0.38991310  0.04072377  0.54092021  1.0
  O  O11545  1  0.38991310  0.20739044  0.54092021  1.0
  O  O11546  1  0.38991310  0.37405711  0.54092021  1.0
  O  O11547  1  0.38991310  0.54072377  0.54092021  1.0
  O  O11548  1  0.38991310  0.70739044  0.54092021  1.0
  O  O11549  1  0.38991310  0.87405711  0.54092021  1.0
  O  O11550  1  0.47324644  0.04072377  0.54092021  1.0
  O  O11551  1  0.47324644  0.20739044  0.54092021  1.0
  O  O11552  1  0.47324644  0.37405711  0.54092021  1.0
  O  O11553  1  0.47324644  0.54072377  0.54092021  1.0
  O  O11554  1  0.47324644  0.70739044  0.54092021  1.0
  O  O11555  1  0.47324644  0.87405711  0.54092021  1.0
  O  O11556  1  0.55657977  0.04072377  0.54092021  1.0
  O  O11557  1  0.55657977  0.20739044  0.54092021  1.0
  O  O11558  1  0.55657977  0.37405711  0.54092021  1.0
  O  O11559  1  0.55657977  0.54072377  0.54092021  1.0
  O  O11560  1  0.55657977  0.70739044  0.54092021  1.0
  O  O11561  1  0.55657977  0.87405711  0.54092021  1.0
  O  O11562  1  0.63991310  0.04072377  0.54092021  1.0
  O  O11563  1  0.63991310  0.20739044  0.54092021  1.0
  O  O11564  1  0.63991310  0.37405711  0.54092021  1.0
  O  O11565  1  0.63991310  0.54072377  0.54092021  1.0
  O  O11566  1  0.63991310  0.70739044  0.54092021  1.0
  O  O11567  1  0.63991310  0.87405711  0.54092021  1.0
  O  O11568  1  0.72324644  0.04072377  0.54092021  1.0
  O  O11569  1  0.72324644  0.20739044  0.54092021  1.0
  O  O11570  1  0.72324644  0.37405711  0.54092021  1.0
  O  O11571  1  0.72324644  0.54072377  0.54092021  1.0
  O  O11572  1  0.72324644  0.70739044  0.54092021  1.0
  O  O11573  1  0.72324644  0.87405711  0.54092021  1.0
  O  O11574  1  0.80657977  0.04072377  0.54092021  1.0
  O  O11575  1  0.80657977  0.20739044  0.54092021  1.0
  O  O11576  1  0.80657977  0.37405711  0.54092021  1.0
  O  O11577  1  0.80657977  0.54072377  0.54092021  1.0
  O  O11578  1  0.80657977  0.70739044  0.54092021  1.0
  O  O11579  1  0.80657977  0.87405711  0.54092021  1.0
  O  O11580  1  0.88991310  0.04072377  0.54092021  1.0
  O  O11581  1  0.88991310  0.20739044  0.54092021  1.0
  O  O11582  1  0.88991310  0.37405711  0.54092021  1.0
  O  O11583  1  0.88991310  0.54072377  0.54092021  1.0
  O  O11584  1  0.88991310  0.70739044  0.54092021  1.0
  O  O11585  1  0.88991310  0.87405711  0.54092021  1.0
  O  O11586  1  0.97324644  0.04072377  0.54092021  1.0
  O  O11587  1  0.97324644  0.20739044  0.54092021  1.0
  O  O11588  1  0.97324644  0.37405711  0.54092021  1.0
  O  O11589  1  0.97324644  0.54072377  0.54092021  1.0
  O  O11590  1  0.97324644  0.70739044  0.54092021  1.0
  O  O11591  1  0.97324644  0.87405711  0.54092021  1.0
  O  O11592  1  0.02519224  0.09219817  0.51347592  1.0
  O  O11593  1  0.02519224  0.25886483  0.51347592  1.0
  O  O11594  1  0.02519224  0.42553150  0.51347592  1.0
  O  O11595  1  0.02519224  0.59219817  0.51347592  1.0
  O  O11596  1  0.02519224  0.75886483  0.51347592  1.0
  O  O11597  1  0.02519224  0.92553150  0.51347592  1.0
  O  O11598  1  0.10852558  0.09219817  0.51347592  1.0
  O  O11599  1  0.10852558  0.25886483  0.51347592  1.0
  O  O11600  1  0.10852558  0.42553150  0.51347592  1.0
  O  O11601  1  0.10852558  0.59219817  0.51347592  1.0
  O  O11602  1  0.10852558  0.75886483  0.51347592  1.0
  O  O11603  1  0.10852558  0.92553150  0.51347592  1.0
  O  O11604  1  0.19185891  0.09219817  0.51347592  1.0
  O  O11605  1  0.19185891  0.25886483  0.51347592  1.0
  O  O11606  1  0.19185891  0.42553150  0.51347592  1.0
  O  O11607  1  0.19185891  0.59219817  0.51347592  1.0
  O  O11608  1  0.19185891  0.75886483  0.51347592  1.0
  O  O11609  1  0.19185891  0.92553150  0.51347592  1.0
  O  O11610  1  0.27519224  0.09219817  0.51347592  1.0
  O  O11611  1  0.27519224  0.25886483  0.51347592  1.0
  O  O11612  1  0.27519224  0.42553150  0.51347592  1.0
  O  O11613  1  0.27519224  0.59219817  0.51347592  1.0
  O  O11614  1  0.27519224  0.75886483  0.51347592  1.0
  O  O11615  1  0.27519224  0.92553150  0.51347592  1.0
  O  O11616  1  0.35852558  0.09219817  0.51347592  1.0
  O  O11617  1  0.35852558  0.25886483  0.51347592  1.0
  O  O11618  1  0.35852558  0.42553150  0.51347592  1.0
  O  O11619  1  0.35852558  0.59219817  0.51347592  1.0
  O  O11620  1  0.35852558  0.75886483  0.51347592  1.0
  O  O11621  1  0.35852558  0.92553150  0.51347592  1.0
  O  O11622  1  0.44185891  0.09219817  0.51347592  1.0
  O  O11623  1  0.44185891  0.25886483  0.51347592  1.0
  O  O11624  1  0.44185891  0.42553150  0.51347592  1.0
  O  O11625  1  0.44185891  0.59219817  0.51347592  1.0
  O  O11626  1  0.44185891  0.75886483  0.51347592  1.0
  O  O11627  1  0.44185891  0.92553150  0.51347592  1.0
  O  O11628  1  0.52519224  0.09219817  0.51347592  1.0
  O  O11629  1  0.52519224  0.25886483  0.51347592  1.0
  O  O11630  1  0.52519224  0.42553150  0.51347592  1.0
  O  O11631  1  0.52519224  0.59219817  0.51347592  1.0
  O  O11632  1  0.52519224  0.75886483  0.51347592  1.0
  O  O11633  1  0.52519224  0.92553150  0.51347592  1.0
  O  O11634  1  0.60852558  0.09219817  0.51347592  1.0
  O  O11635  1  0.60852558  0.25886483  0.51347592  1.0
  O  O11636  1  0.60852558  0.42553150  0.51347592  1.0
  O  O11637  1  0.60852558  0.59219817  0.51347592  1.0
  O  O11638  1  0.60852558  0.75886483  0.51347592  1.0
  O  O11639  1  0.60852558  0.92553150  0.51347592  1.0
  O  O11640  1  0.69185891  0.09219817  0.51347592  1.0
  O  O11641  1  0.69185891  0.25886483  0.51347592  1.0
  O  O11642  1  0.69185891  0.42553150  0.51347592  1.0
  O  O11643  1  0.69185891  0.59219817  0.51347592  1.0
  O  O11644  1  0.69185891  0.75886483  0.51347592  1.0
  O  O11645  1  0.69185891  0.92553150  0.51347592  1.0
  O  O11646  1  0.77519224  0.09219817  0.51347592  1.0
  O  O11647  1  0.77519224  0.25886483  0.51347592  1.0
  O  O11648  1  0.77519224  0.42553150  0.51347592  1.0
  O  O11649  1  0.77519224  0.59219817  0.51347592  1.0
  O  O11650  1  0.77519224  0.75886483  0.51347592  1.0
  O  O11651  1  0.77519224  0.92553150  0.51347592  1.0
  O  O11652  1  0.85852558  0.09219817  0.51347592  1.0
  O  O11653  1  0.85852558  0.25886483  0.51347592  1.0
  O  O11654  1  0.85852558  0.42553150  0.51347592  1.0
  O  O11655  1  0.85852558  0.59219817  0.51347592  1.0
  O  O11656  1  0.85852558  0.75886483  0.51347592  1.0
  O  O11657  1  0.85852558  0.92553150  0.51347592  1.0
  O  O11658  1  0.94185891  0.09219817  0.51347592  1.0
  O  O11659  1  0.94185891  0.25886483  0.51347592  1.0
  O  O11660  1  0.94185891  0.42553150  0.51347592  1.0
  O  O11661  1  0.94185891  0.59219817  0.51347592  1.0
  O  O11662  1  0.94185891  0.75886483  0.51347592  1.0
  O  O11663  1  0.94185891  0.92553150  0.51347592  1.0
  O  O11664  1  0.00138272  0.08029341  0.58490449  1.0
  O  O11665  1  0.00138272  0.24696007  0.58490449  1.0
  O  O11666  1  0.00138272  0.41362674  0.58490449  1.0
  O  O11667  1  0.00138272  0.58029341  0.58490449  1.0
  O  O11668  1  0.00138272  0.74696007  0.58490449  1.0
  O  O11669  1  0.00138272  0.91362674  0.58490449  1.0
  O  O11670  1  0.08471605  0.08029341  0.58490449  1.0
  O  O11671  1  0.08471605  0.24696007  0.58490449  1.0
  O  O11672  1  0.08471605  0.41362674  0.58490449  1.0
  O  O11673  1  0.08471605  0.58029341  0.58490449  1.0
  O  O11674  1  0.08471605  0.74696007  0.58490449  1.0
  O  O11675  1  0.08471605  0.91362674  0.58490449  1.0
  O  O11676  1  0.16804938  0.08029341  0.58490449  1.0
  O  O11677  1  0.16804938  0.24696007  0.58490449  1.0
  O  O11678  1  0.16804938  0.41362674  0.58490449  1.0
  O  O11679  1  0.16804938  0.58029341  0.58490449  1.0
  O  O11680  1  0.16804938  0.74696007  0.58490449  1.0
  O  O11681  1  0.16804938  0.91362674  0.58490449  1.0
  O  O11682  1  0.25138272  0.08029341  0.58490449  1.0
  O  O11683  1  0.25138272  0.24696007  0.58490449  1.0
  O  O11684  1  0.25138272  0.41362674  0.58490449  1.0
  O  O11685  1  0.25138272  0.58029341  0.58490449  1.0
  O  O11686  1  0.25138272  0.74696007  0.58490449  1.0
  O  O11687  1  0.25138272  0.91362674  0.58490449  1.0
  O  O11688  1  0.33471605  0.08029341  0.58490449  1.0
  O  O11689  1  0.33471605  0.24696007  0.58490449  1.0
  O  O11690  1  0.33471605  0.41362674  0.58490449  1.0
  O  O11691  1  0.33471605  0.58029341  0.58490449  1.0
  O  O11692  1  0.33471605  0.74696007  0.58490449  1.0
  O  O11693  1  0.33471605  0.91362674  0.58490449  1.0
  O  O11694  1  0.41804938  0.08029341  0.58490449  1.0
  O  O11695  1  0.41804938  0.24696007  0.58490449  1.0
  O  O11696  1  0.41804938  0.41362674  0.58490449  1.0
  O  O11697  1  0.41804938  0.58029341  0.58490449  1.0
  O  O11698  1  0.41804938  0.74696007  0.58490449  1.0
  O  O11699  1  0.41804938  0.91362674  0.58490449  1.0
  O  O11700  1  0.50138272  0.08029341  0.58490449  1.0
  O  O11701  1  0.50138272  0.24696007  0.58490449  1.0
  O  O11702  1  0.50138272  0.41362674  0.58490449  1.0
  O  O11703  1  0.50138272  0.58029341  0.58490449  1.0
  O  O11704  1  0.50138272  0.74696007  0.58490449  1.0
  O  O11705  1  0.50138272  0.91362674  0.58490449  1.0
  O  O11706  1  0.58471605  0.08029341  0.58490449  1.0
  O  O11707  1  0.58471605  0.24696007  0.58490449  1.0
  O  O11708  1  0.58471605  0.41362674  0.58490449  1.0
  O  O11709  1  0.58471605  0.58029341  0.58490449  1.0
  O  O11710  1  0.58471605  0.74696007  0.58490449  1.0
  O  O11711  1  0.58471605  0.91362674  0.58490449  1.0
  O  O11712  1  0.66804938  0.08029341  0.58490449  1.0
  O  O11713  1  0.66804938  0.24696007  0.58490449  1.0
  O  O11714  1  0.66804938  0.41362674  0.58490449  1.0
  O  O11715  1  0.66804938  0.58029341  0.58490449  1.0
  O  O11716  1  0.66804938  0.74696007  0.58490449  1.0
  O  O11717  1  0.66804938  0.91362674  0.58490449  1.0
  O  O11718  1  0.75138272  0.08029341  0.58490449  1.0
  O  O11719  1  0.75138272  0.24696007  0.58490449  1.0
  O  O11720  1  0.75138272  0.41362674  0.58490449  1.0
  O  O11721  1  0.75138272  0.58029341  0.58490449  1.0
  O  O11722  1  0.75138272  0.74696007  0.58490449  1.0
  O  O11723  1  0.75138272  0.91362674  0.58490449  1.0
  O  O11724  1  0.83471605  0.08029341  0.58490449  1.0
  O  O11725  1  0.83471605  0.24696007  0.58490449  1.0
  O  O11726  1  0.83471605  0.41362674  0.58490449  1.0
  O  O11727  1  0.83471605  0.58029341  0.58490449  1.0
  O  O11728  1  0.83471605  0.74696007  0.58490449  1.0
  O  O11729  1  0.83471605  0.91362674  0.58490449  1.0
  O  O11730  1  0.91804938  0.08029341  0.58490449  1.0
  O  O11731  1  0.91804938  0.24696007  0.58490449  1.0
  O  O11732  1  0.91804938  0.41362674  0.58490449  1.0
  O  O11733  1  0.91804938  0.58029341  0.58490449  1.0
  O  O11734  1  0.91804938  0.74696007  0.58490449  1.0
  O  O11735  1  0.91804938  0.91362674  0.58490449  1.0
  O  O11736  1  0.07504515  0.05106916  0.61573527  1.0
  O  O11737  1  0.07504515  0.21773582  0.61573527  1.0
  O  O11738  1  0.07504515  0.38440249  0.61573527  1.0
  O  O11739  1  0.07504515  0.55106916  0.61573527  1.0
  O  O11740  1  0.07504515  0.71773582  0.61573527  1.0
  O  O11741  1  0.07504515  0.88440249  0.61573527  1.0
  O  O11742  1  0.15837849  0.05106916  0.61573527  1.0
  O  O11743  1  0.15837849  0.21773582  0.61573527  1.0
  O  O11744  1  0.15837849  0.38440249  0.61573527  1.0
  O  O11745  1  0.15837849  0.55106916  0.61573527  1.0
  O  O11746  1  0.15837849  0.71773582  0.61573527  1.0
  O  O11747  1  0.15837849  0.88440249  0.61573527  1.0
  O  O11748  1  0.24171182  0.05106916  0.61573527  1.0
  O  O11749  1  0.24171182  0.21773582  0.61573527  1.0
  O  O11750  1  0.24171182  0.38440249  0.61573527  1.0
  O  O11751  1  0.24171182  0.55106916  0.61573527  1.0
  O  O11752  1  0.24171182  0.71773582  0.61573527  1.0
  O  O11753  1  0.24171182  0.88440249  0.61573527  1.0
  O  O11754  1  0.32504515  0.05106916  0.61573527  1.0
  O  O11755  1  0.32504515  0.21773582  0.61573527  1.0
  O  O11756  1  0.32504515  0.38440249  0.61573527  1.0
  O  O11757  1  0.32504515  0.55106916  0.61573527  1.0
  O  O11758  1  0.32504515  0.71773582  0.61573527  1.0
  O  O11759  1  0.32504515  0.88440249  0.61573527  1.0
  O  O11760  1  0.40837849  0.05106916  0.61573527  1.0
  O  O11761  1  0.40837849  0.21773582  0.61573527  1.0
  O  O11762  1  0.40837849  0.38440249  0.61573527  1.0
  O  O11763  1  0.40837849  0.55106916  0.61573527  1.0
  O  O11764  1  0.40837849  0.71773582  0.61573527  1.0
  O  O11765  1  0.40837849  0.88440249  0.61573527  1.0
  O  O11766  1  0.49171182  0.05106916  0.61573527  1.0
  O  O11767  1  0.49171182  0.21773582  0.61573527  1.0
  O  O11768  1  0.49171182  0.38440249  0.61573527  1.0
  O  O11769  1  0.49171182  0.55106916  0.61573527  1.0
  O  O11770  1  0.49171182  0.71773582  0.61573527  1.0
  O  O11771  1  0.49171182  0.88440249  0.61573527  1.0
  O  O11772  1  0.57504515  0.05106916  0.61573527  1.0
  O  O11773  1  0.57504515  0.21773582  0.61573527  1.0
  O  O11774  1  0.57504515  0.38440249  0.61573527  1.0
  O  O11775  1  0.57504515  0.55106916  0.61573527  1.0
  O  O11776  1  0.57504515  0.71773582  0.61573527  1.0
  O  O11777  1  0.57504515  0.88440249  0.61573527  1.0
  O  O11778  1  0.65837849  0.05106916  0.61573527  1.0
  O  O11779  1  0.65837849  0.21773582  0.61573527  1.0
  O  O11780  1  0.65837849  0.38440249  0.61573527  1.0
  O  O11781  1  0.65837849  0.55106916  0.61573527  1.0
  O  O11782  1  0.65837849  0.71773582  0.61573527  1.0
  O  O11783  1  0.65837849  0.88440249  0.61573527  1.0
  O  O11784  1  0.74171182  0.05106916  0.61573527  1.0
  O  O11785  1  0.74171182  0.21773582  0.61573527  1.0
  O  O11786  1  0.74171182  0.38440249  0.61573527  1.0
  O  O11787  1  0.74171182  0.55106916  0.61573527  1.0
  O  O11788  1  0.74171182  0.71773582  0.61573527  1.0
  O  O11789  1  0.74171182  0.88440249  0.61573527  1.0
  O  O11790  1  0.82504515  0.05106916  0.61573527  1.0
  O  O11791  1  0.82504515  0.21773582  0.61573527  1.0
  O  O11792  1  0.82504515  0.38440249  0.61573527  1.0
  O  O11793  1  0.82504515  0.55106916  0.61573527  1.0
  O  O11794  1  0.82504515  0.71773582  0.61573527  1.0
  O  O11795  1  0.82504515  0.88440249  0.61573527  1.0
  O  O11796  1  0.90837849  0.05106916  0.61573527  1.0
  O  O11797  1  0.90837849  0.21773582  0.61573527  1.0
  O  O11798  1  0.90837849  0.38440249  0.61573527  1.0
  O  O11799  1  0.90837849  0.55106916  0.61573527  1.0
  O  O11800  1  0.90837849  0.71773582  0.61573527  1.0
  O  O11801  1  0.90837849  0.88440249  0.61573527  1.0
  O  O11802  1  0.99171182  0.05106916  0.61573527  1.0
  O  O11803  1  0.99171182  0.21773582  0.61573527  1.0
  O  O11804  1  0.99171182  0.38440249  0.61573527  1.0
  O  O11805  1  0.99171182  0.55106916  0.61573527  1.0
  O  O11806  1  0.99171182  0.71773582  0.61573527  1.0
  O  O11807  1  0.99171182  0.88440249  0.61573527  1.0
  O  O11808  1  0.01552134  0.06297392  0.54430670  1.0
  O  O11809  1  0.01552134  0.22964058  0.54430670  1.0
  O  O11810  1  0.01552134  0.39630725  0.54430670  1.0
  O  O11811  1  0.01552134  0.56297392  0.54430670  1.0
  O  O11812  1  0.01552134  0.72964058  0.54430670  1.0
  O  O11813  1  0.01552134  0.89630725  0.54430670  1.0
  O  O11814  1  0.09885468  0.06297392  0.54430670  1.0
  O  O11815  1  0.09885468  0.22964058  0.54430670  1.0
  O  O11816  1  0.09885468  0.39630725  0.54430670  1.0
  O  O11817  1  0.09885468  0.56297392  0.54430670  1.0
  O  O11818  1  0.09885468  0.72964058  0.54430670  1.0
  O  O11819  1  0.09885468  0.89630725  0.54430670  1.0
  O  O11820  1  0.18218801  0.06297392  0.54430670  1.0
  O  O11821  1  0.18218801  0.22964058  0.54430670  1.0
  O  O11822  1  0.18218801  0.39630725  0.54430670  1.0
  O  O11823  1  0.18218801  0.56297392  0.54430670  1.0
  O  O11824  1  0.18218801  0.72964058  0.54430670  1.0
  O  O11825  1  0.18218801  0.89630725  0.54430670  1.0
  O  O11826  1  0.26552134  0.06297392  0.54430670  1.0
  O  O11827  1  0.26552134  0.22964058  0.54430670  1.0
  O  O11828  1  0.26552134  0.39630725  0.54430670  1.0
  O  O11829  1  0.26552134  0.56297392  0.54430670  1.0
  O  O11830  1  0.26552134  0.72964058  0.54430670  1.0
  O  O11831  1  0.26552134  0.89630725  0.54430670  1.0
  O  O11832  1  0.34885468  0.06297392  0.54430670  1.0
  O  O11833  1  0.34885468  0.22964058  0.54430670  1.0
  O  O11834  1  0.34885468  0.39630725  0.54430670  1.0
  O  O11835  1  0.34885468  0.56297392  0.54430670  1.0
  O  O11836  1  0.34885468  0.72964058  0.54430670  1.0
  O  O11837  1  0.34885468  0.89630725  0.54430670  1.0
  O  O11838  1  0.43218801  0.06297392  0.54430670  1.0
  O  O11839  1  0.43218801  0.22964058  0.54430670  1.0
  O  O11840  1  0.43218801  0.39630725  0.54430670  1.0
  O  O11841  1  0.43218801  0.56297392  0.54430670  1.0
  O  O11842  1  0.43218801  0.72964058  0.54430670  1.0
  O  O11843  1  0.43218801  0.89630725  0.54430670  1.0
  O  O11844  1  0.51552134  0.06297392  0.54430670  1.0
  O  O11845  1  0.51552134  0.22964058  0.54430670  1.0
  O  O11846  1  0.51552134  0.39630725  0.54430670  1.0
  O  O11847  1  0.51552134  0.56297392  0.54430670  1.0
  O  O11848  1  0.51552134  0.72964058  0.54430670  1.0
  O  O11849  1  0.51552134  0.89630725  0.54430670  1.0
  O  O11850  1  0.59885468  0.06297392  0.54430670  1.0
  O  O11851  1  0.59885468  0.22964058  0.54430670  1.0
  O  O11852  1  0.59885468  0.39630725  0.54430670  1.0
  O  O11853  1  0.59885468  0.56297392  0.54430670  1.0
  O  O11854  1  0.59885468  0.72964058  0.54430670  1.0
  O  O11855  1  0.59885468  0.89630725  0.54430670  1.0
  O  O11856  1  0.68218801  0.06297392  0.54430670  1.0
  O  O11857  1  0.68218801  0.22964058  0.54430670  1.0
  O  O11858  1  0.68218801  0.39630725  0.54430670  1.0
  O  O11859  1  0.68218801  0.56297392  0.54430670  1.0
  O  O11860  1  0.68218801  0.72964058  0.54430670  1.0
  O  O11861  1  0.68218801  0.89630725  0.54430670  1.0
  O  O11862  1  0.76552134  0.06297392  0.54430670  1.0
  O  O11863  1  0.76552134  0.22964058  0.54430670  1.0
  O  O11864  1  0.76552134  0.39630725  0.54430670  1.0
  O  O11865  1  0.76552134  0.56297392  0.54430670  1.0
  O  O11866  1  0.76552134  0.72964058  0.54430670  1.0
  O  O11867  1  0.76552134  0.89630725  0.54430670  1.0
  O  O11868  1  0.84885468  0.06297392  0.54430670  1.0
  O  O11869  1  0.84885468  0.22964058  0.54430670  1.0
  O  O11870  1  0.84885468  0.39630725  0.54430670  1.0
  O  O11871  1  0.84885468  0.56297392  0.54430670  1.0
  O  O11872  1  0.84885468  0.72964058  0.54430670  1.0
  O  O11873  1  0.84885468  0.89630725  0.54430670  1.0
  O  O11874  1  0.93218801  0.06297392  0.54430670  1.0
  O  O11875  1  0.93218801  0.22964058  0.54430670  1.0
  O  O11876  1  0.93218801  0.39630725  0.54430670  1.0
  O  O11877  1  0.93218801  0.56297392  0.54430670  1.0
  O  O11878  1  0.93218801  0.72964058  0.54430670  1.0
  O  O11879  1  0.93218801  0.89630725  0.54430670  1.0
  O  O11880  1  0.01498649  0.13730906  0.67282817  1.0
  O  O11881  1  0.01498649  0.30397573  0.67282817  1.0
  O  O11882  1  0.01498649  0.47064240  0.67282817  1.0
  O  O11883  1  0.01498649  0.63730906  0.67282817  1.0
  O  O11884  1  0.01498649  0.80397573  0.67282817  1.0
  O  O11885  1  0.01498649  0.97064240  0.67282817  1.0
  O  O11886  1  0.09831983  0.13730906  0.67282817  1.0
  O  O11887  1  0.09831983  0.30397573  0.67282817  1.0
  O  O11888  1  0.09831983  0.47064240  0.67282817  1.0
  O  O11889  1  0.09831983  0.63730906  0.67282817  1.0
  O  O11890  1  0.09831983  0.80397573  0.67282817  1.0
  O  O11891  1  0.09831983  0.97064240  0.67282817  1.0
  O  O11892  1  0.18165316  0.13730906  0.67282817  1.0
  O  O11893  1  0.18165316  0.30397573  0.67282817  1.0
  O  O11894  1  0.18165316  0.47064240  0.67282817  1.0
  O  O11895  1  0.18165316  0.63730906  0.67282817  1.0
  O  O11896  1  0.18165316  0.80397573  0.67282817  1.0
  O  O11897  1  0.18165316  0.97064240  0.67282817  1.0
  O  O11898  1  0.26498649  0.13730906  0.67282817  1.0
  O  O11899  1  0.26498649  0.30397573  0.67282817  1.0
  O  O11900  1  0.26498649  0.47064240  0.67282817  1.0
  O  O11901  1  0.26498649  0.63730906  0.67282817  1.0
  O  O11902  1  0.26498649  0.80397573  0.67282817  1.0
  O  O11903  1  0.26498649  0.97064240  0.67282817  1.0
  O  O11904  1  0.34831983  0.13730906  0.67282817  1.0
  O  O11905  1  0.34831983  0.30397573  0.67282817  1.0
  O  O11906  1  0.34831983  0.47064240  0.67282817  1.0
  O  O11907  1  0.34831983  0.63730906  0.67282817  1.0
  O  O11908  1  0.34831983  0.80397573  0.67282817  1.0
  O  O11909  1  0.34831983  0.97064240  0.67282817  1.0
  O  O11910  1  0.43165316  0.13730906  0.67282817  1.0
  O  O11911  1  0.43165316  0.30397573  0.67282817  1.0
  O  O11912  1  0.43165316  0.47064240  0.67282817  1.0
  O  O11913  1  0.43165316  0.63730906  0.67282817  1.0
  O  O11914  1  0.43165316  0.80397573  0.67282817  1.0
  O  O11915  1  0.43165316  0.97064240  0.67282817  1.0
  O  O11916  1  0.51498649  0.13730906  0.67282817  1.0
  O  O11917  1  0.51498649  0.30397573  0.67282817  1.0
  O  O11918  1  0.51498649  0.47064240  0.67282817  1.0
  O  O11919  1  0.51498649  0.63730906  0.67282817  1.0
  O  O11920  1  0.51498649  0.80397573  0.67282817  1.0
  O  O11921  1  0.51498649  0.97064240  0.67282817  1.0
  O  O11922  1  0.59831983  0.13730906  0.67282817  1.0
  O  O11923  1  0.59831983  0.30397573  0.67282817  1.0
  O  O11924  1  0.59831983  0.47064240  0.67282817  1.0
  O  O11925  1  0.59831983  0.63730906  0.67282817  1.0
  O  O11926  1  0.59831983  0.80397573  0.67282817  1.0
  O  O11927  1  0.59831983  0.97064240  0.67282817  1.0
  O  O11928  1  0.68165316  0.13730906  0.67282817  1.0
  O  O11929  1  0.68165316  0.30397573  0.67282817  1.0
  O  O11930  1  0.68165316  0.47064240  0.67282817  1.0
  O  O11931  1  0.68165316  0.63730906  0.67282817  1.0
  O  O11932  1  0.68165316  0.80397573  0.67282817  1.0
  O  O11933  1  0.68165316  0.97064240  0.67282817  1.0
  O  O11934  1  0.76498649  0.13730906  0.67282817  1.0
  O  O11935  1  0.76498649  0.30397573  0.67282817  1.0
  O  O11936  1  0.76498649  0.47064240  0.67282817  1.0
  O  O11937  1  0.76498649  0.63730906  0.67282817  1.0
  O  O11938  1  0.76498649  0.80397573  0.67282817  1.0
  O  O11939  1  0.76498649  0.97064240  0.67282817  1.0
  O  O11940  1  0.84831983  0.13730906  0.67282817  1.0
  O  O11941  1  0.84831983  0.30397573  0.67282817  1.0
  O  O11942  1  0.84831983  0.47064240  0.67282817  1.0
  O  O11943  1  0.84831983  0.63730906  0.67282817  1.0
  O  O11944  1  0.84831983  0.80397573  0.67282817  1.0
  O  O11945  1  0.84831983  0.97064240  0.67282817  1.0
  O  O11946  1  0.93165316  0.13730906  0.67282817  1.0
  O  O11947  1  0.93165316  0.30397573  0.67282817  1.0
  O  O11948  1  0.93165316  0.47064240  0.67282817  1.0
  O  O11949  1  0.93165316  0.63730906  0.67282817  1.0
  O  O11950  1  0.93165316  0.80397573  0.67282817  1.0
  O  O11951  1  0.93165316  0.97064240  0.67282817  1.0
  O  O11952  1  0.01928572  0.09248675  0.66208150  1.0
  O  O11953  1  0.01928572  0.25915342  0.66208150  1.0
  O  O11954  1  0.01928572  0.42582009  0.66208150  1.0
  O  O11955  1  0.01928572  0.59248675  0.66208150  1.0
  O  O11956  1  0.01928572  0.75915342  0.66208150  1.0
  O  O11957  1  0.01928572  0.92582009  0.66208150  1.0
  O  O11958  1  0.10261906  0.09248675  0.66208150  1.0
  O  O11959  1  0.10261906  0.25915342  0.66208150  1.0
  O  O11960  1  0.10261906  0.42582009  0.66208150  1.0
  O  O11961  1  0.10261906  0.59248675  0.66208150  1.0
  O  O11962  1  0.10261906  0.75915342  0.66208150  1.0
  O  O11963  1  0.10261906  0.92582009  0.66208150  1.0
  O  O11964  1  0.18595239  0.09248675  0.66208150  1.0
  O  O11965  1  0.18595239  0.25915342  0.66208150  1.0
  O  O11966  1  0.18595239  0.42582009  0.66208150  1.0
  O  O11967  1  0.18595239  0.59248675  0.66208150  1.0
  O  O11968  1  0.18595239  0.75915342  0.66208150  1.0
  O  O11969  1  0.18595239  0.92582009  0.66208150  1.0
  O  O11970  1  0.26928572  0.09248675  0.66208150  1.0
  O  O11971  1  0.26928572  0.25915342  0.66208150  1.0
  O  O11972  1  0.26928572  0.42582009  0.66208150  1.0
  O  O11973  1  0.26928572  0.59248675  0.66208150  1.0
  O  O11974  1  0.26928572  0.75915342  0.66208150  1.0
  O  O11975  1  0.26928572  0.92582009  0.66208150  1.0
  O  O11976  1  0.35261906  0.09248675  0.66208150  1.0
  O  O11977  1  0.35261906  0.25915342  0.66208150  1.0
  O  O11978  1  0.35261906  0.42582009  0.66208150  1.0
  O  O11979  1  0.35261906  0.59248675  0.66208150  1.0
  O  O11980  1  0.35261906  0.75915342  0.66208150  1.0
  O  O11981  1  0.35261906  0.92582009  0.66208150  1.0
  O  O11982  1  0.43595239  0.09248675  0.66208150  1.0
  O  O11983  1  0.43595239  0.25915342  0.66208150  1.0
  O  O11984  1  0.43595239  0.42582009  0.66208150  1.0
  O  O11985  1  0.43595239  0.59248675  0.66208150  1.0
  O  O11986  1  0.43595239  0.75915342  0.66208150  1.0
  O  O11987  1  0.43595239  0.92582009  0.66208150  1.0
  O  O11988  1  0.51928572  0.09248675  0.66208150  1.0
  O  O11989  1  0.51928572  0.25915342  0.66208150  1.0
  O  O11990  1  0.51928572  0.42582009  0.66208150  1.0
  O  O11991  1  0.51928572  0.59248675  0.66208150  1.0
  O  O11992  1  0.51928572  0.75915342  0.66208150  1.0
  O  O11993  1  0.51928572  0.92582009  0.66208150  1.0
  O  O11994  1  0.60261906  0.09248675  0.66208150  1.0
  O  O11995  1  0.60261906  0.25915342  0.66208150  1.0
  O  O11996  1  0.60261906  0.42582009  0.66208150  1.0
  O  O11997  1  0.60261906  0.59248675  0.66208150  1.0
  O  O11998  1  0.60261906  0.75915342  0.66208150  1.0
  O  O11999  1  0.60261906  0.92582009  0.66208150  1.0
  O  O12000  1  0.68595239  0.09248675  0.66208150  1.0
  O  O12001  1  0.68595239  0.25915342  0.66208150  1.0
  O  O12002  1  0.68595239  0.42582009  0.66208150  1.0
  O  O12003  1  0.68595239  0.59248675  0.66208150  1.0
  O  O12004  1  0.68595239  0.75915342  0.66208150  1.0
  O  O12005  1  0.68595239  0.92582009  0.66208150  1.0
  O  O12006  1  0.76928572  0.09248675  0.66208150  1.0
  O  O12007  1  0.76928572  0.25915342  0.66208150  1.0
  O  O12008  1  0.76928572  0.42582009  0.66208150  1.0
  O  O12009  1  0.76928572  0.59248675  0.66208150  1.0
  O  O12010  1  0.76928572  0.75915342  0.66208150  1.0
  O  O12011  1  0.76928572  0.92582009  0.66208150  1.0
  O  O12012  1  0.85261906  0.09248675  0.66208150  1.0
  O  O12013  1  0.85261906  0.25915342  0.66208150  1.0
  O  O12014  1  0.85261906  0.42582009  0.66208150  1.0
  O  O12015  1  0.85261906  0.59248675  0.66208150  1.0
  O  O12016  1  0.85261906  0.75915342  0.66208150  1.0
  O  O12017  1  0.85261906  0.92582009  0.66208150  1.0
  O  O12018  1  0.93595239  0.09248675  0.66208150  1.0
  O  O12019  1  0.93595239  0.25915342  0.66208150  1.0
  O  O12020  1  0.93595239  0.42582009  0.66208150  1.0
  O  O12021  1  0.93595239  0.59248675  0.66208150  1.0
  O  O12022  1  0.93595239  0.75915342  0.66208150  1.0
  O  O12023  1  0.93595239  0.92582009  0.66208150  1.0
  O  O12024  1  0.07880953  0.08058199  0.73351008  1.0
  O  O12025  1  0.07880953  0.24724866  0.73351008  1.0
  O  O12026  1  0.07880953  0.41391533  0.73351008  1.0
  O  O12027  1  0.07880953  0.58058199  0.73351008  1.0
  O  O12028  1  0.07880953  0.74724866  0.73351008  1.0
  O  O12029  1  0.07880953  0.91391533  0.73351008  1.0
  O  O12030  1  0.16214286  0.08058199  0.73351008  1.0
  O  O12031  1  0.16214286  0.24724866  0.73351008  1.0
  O  O12032  1  0.16214286  0.41391533  0.73351008  1.0
  O  O12033  1  0.16214286  0.58058199  0.73351008  1.0
  O  O12034  1  0.16214286  0.74724866  0.73351008  1.0
  O  O12035  1  0.16214286  0.91391533  0.73351008  1.0
  O  O12036  1  0.24547620  0.08058199  0.73351008  1.0
  O  O12037  1  0.24547620  0.24724866  0.73351008  1.0
  O  O12038  1  0.24547620  0.41391533  0.73351008  1.0
  O  O12039  1  0.24547620  0.58058199  0.73351008  1.0
  O  O12040  1  0.24547620  0.74724866  0.73351008  1.0
  O  O12041  1  0.24547620  0.91391533  0.73351008  1.0
  O  O12042  1  0.32880953  0.08058199  0.73351008  1.0
  O  O12043  1  0.32880953  0.24724866  0.73351008  1.0
  O  O12044  1  0.32880953  0.41391533  0.73351008  1.0
  O  O12045  1  0.32880953  0.58058199  0.73351008  1.0
  O  O12046  1  0.32880953  0.74724866  0.73351008  1.0
  O  O12047  1  0.32880953  0.91391533  0.73351008  1.0
  O  O12048  1  0.41214286  0.08058199  0.73351008  1.0
  O  O12049  1  0.41214286  0.24724866  0.73351008  1.0
  O  O12050  1  0.41214286  0.41391533  0.73351008  1.0
  O  O12051  1  0.41214286  0.58058199  0.73351008  1.0
  O  O12052  1  0.41214286  0.74724866  0.73351008  1.0
  O  O12053  1  0.41214286  0.91391533  0.73351008  1.0
  O  O12054  1  0.49547620  0.08058199  0.73351008  1.0
  O  O12055  1  0.49547620  0.24724866  0.73351008  1.0
  O  O12056  1  0.49547620  0.41391533  0.73351008  1.0
  O  O12057  1  0.49547620  0.58058199  0.73351008  1.0
  O  O12058  1  0.49547620  0.74724866  0.73351008  1.0
  O  O12059  1  0.49547620  0.91391533  0.73351008  1.0
  O  O12060  1  0.57880953  0.08058199  0.73351008  1.0
  O  O12061  1  0.57880953  0.24724866  0.73351008  1.0
  O  O12062  1  0.57880953  0.41391533  0.73351008  1.0
  O  O12063  1  0.57880953  0.58058199  0.73351008  1.0
  O  O12064  1  0.57880953  0.74724866  0.73351008  1.0
  O  O12065  1  0.57880953  0.91391533  0.73351008  1.0
  O  O12066  1  0.66214286  0.08058199  0.73351008  1.0
  O  O12067  1  0.66214286  0.24724866  0.73351008  1.0
  O  O12068  1  0.66214286  0.41391533  0.73351008  1.0
  O  O12069  1  0.66214286  0.58058199  0.73351008  1.0
  O  O12070  1  0.66214286  0.74724866  0.73351008  1.0
  O  O12071  1  0.66214286  0.91391533  0.73351008  1.0
  O  O12072  1  0.74547620  0.08058199  0.73351008  1.0
  O  O12073  1  0.74547620  0.24724866  0.73351008  1.0
  O  O12074  1  0.74547620  0.41391533  0.73351008  1.0
  O  O12075  1  0.74547620  0.58058199  0.73351008  1.0
  O  O12076  1  0.74547620  0.74724866  0.73351008  1.0
  O  O12077  1  0.74547620  0.91391533  0.73351008  1.0
  O  O12078  1  0.82880953  0.08058199  0.73351008  1.0
  O  O12079  1  0.82880953  0.24724866  0.73351008  1.0
  O  O12080  1  0.82880953  0.41391533  0.73351008  1.0
  O  O12081  1  0.82880953  0.58058199  0.73351008  1.0
  O  O12082  1  0.82880953  0.74724866  0.73351008  1.0
  O  O12083  1  0.82880953  0.91391533  0.73351008  1.0
  O  O12084  1  0.91214286  0.08058199  0.73351008  1.0
  O  O12085  1  0.91214286  0.24724866  0.73351008  1.0
  O  O12086  1  0.91214286  0.41391533  0.73351008  1.0
  O  O12087  1  0.91214286  0.58058199  0.73351008  1.0
  O  O12088  1  0.91214286  0.74724866  0.73351008  1.0
  O  O12089  1  0.91214286  0.91391533  0.73351008  1.0
  O  O12090  1  0.99547620  0.08058199  0.73351008  1.0
  O  O12091  1  0.99547620  0.24724866  0.73351008  1.0
  O  O12092  1  0.99547620  0.41391533  0.73351008  1.0
  O  O12093  1  0.99547620  0.58058199  0.73351008  1.0
  O  O12094  1  0.99547620  0.74724866  0.73351008  1.0
  O  O12095  1  0.99547620  0.91391533  0.73351008  1.0
  O  O12096  1  0.05549105  0.15993197  0.67778796  1.0
  O  O12097  1  0.05549105  0.32659864  0.67778796  1.0
  O  O12098  1  0.05549105  0.49326530  0.67778796  1.0
  O  O12099  1  0.05549105  0.65993197  0.67778796  1.0
  O  O12100  1  0.05549105  0.82659864  0.67778796  1.0
  O  O12101  1  0.05549105  0.99326530  0.67778796  1.0
  O  O12102  1  0.13882438  0.15993197  0.67778796  1.0
  O  O12103  1  0.13882438  0.32659864  0.67778796  1.0
  O  O12104  1  0.13882438  0.49326530  0.67778796  1.0
  O  O12105  1  0.13882438  0.65993197  0.67778796  1.0
  O  O12106  1  0.13882438  0.82659864  0.67778796  1.0
  O  O12107  1  0.13882438  0.99326530  0.67778796  1.0
  O  O12108  1  0.22215772  0.15993197  0.67778796  1.0
  O  O12109  1  0.22215772  0.32659864  0.67778796  1.0
  O  O12110  1  0.22215772  0.49326530  0.67778796  1.0
  O  O12111  1  0.22215772  0.65993197  0.67778796  1.0
  O  O12112  1  0.22215772  0.82659864  0.67778796  1.0
  O  O12113  1  0.22215772  0.99326530  0.67778796  1.0
  O  O12114  1  0.30549105  0.15993197  0.67778796  1.0
  O  O12115  1  0.30549105  0.32659864  0.67778796  1.0
  O  O12116  1  0.30549105  0.49326530  0.67778796  1.0
  O  O12117  1  0.30549105  0.65993197  0.67778796  1.0
  O  O12118  1  0.30549105  0.82659864  0.67778796  1.0
  O  O12119  1  0.30549105  0.99326530  0.67778796  1.0
  O  O12120  1  0.38882438  0.15993197  0.67778796  1.0
  O  O12121  1  0.38882438  0.32659864  0.67778796  1.0
  O  O12122  1  0.38882438  0.49326530  0.67778796  1.0
  O  O12123  1  0.38882438  0.65993197  0.67778796  1.0
  O  O12124  1  0.38882438  0.82659864  0.67778796  1.0
  O  O12125  1  0.38882438  0.99326530  0.67778796  1.0
  O  O12126  1  0.47215772  0.15993197  0.67778796  1.0
  O  O12127  1  0.47215772  0.32659864  0.67778796  1.0
  O  O12128  1  0.47215772  0.49326530  0.67778796  1.0
  O  O12129  1  0.47215772  0.65993197  0.67778796  1.0
  O  O12130  1  0.47215772  0.82659864  0.67778796  1.0
  O  O12131  1  0.47215772  0.99326530  0.67778796  1.0
  O  O12132  1  0.55549105  0.15993197  0.67778796  1.0
  O  O12133  1  0.55549105  0.32659864  0.67778796  1.0
  O  O12134  1  0.55549105  0.49326530  0.67778796  1.0
  O  O12135  1  0.55549105  0.65993197  0.67778796  1.0
  O  O12136  1  0.55549105  0.82659864  0.67778796  1.0
  O  O12137  1  0.55549105  0.99326530  0.67778796  1.0
  O  O12138  1  0.63882438  0.15993197  0.67778796  1.0
  O  O12139  1  0.63882438  0.32659864  0.67778796  1.0
  O  O12140  1  0.63882438  0.49326530  0.67778796  1.0
  O  O12141  1  0.63882438  0.65993197  0.67778796  1.0
  O  O12142  1  0.63882438  0.82659864  0.67778796  1.0
  O  O12143  1  0.63882438  0.99326530  0.67778796  1.0
  O  O12144  1  0.72215772  0.15993197  0.67778796  1.0
  O  O12145  1  0.72215772  0.32659864  0.67778796  1.0
  O  O12146  1  0.72215772  0.49326530  0.67778796  1.0
  O  O12147  1  0.72215772  0.65993197  0.67778796  1.0
  O  O12148  1  0.72215772  0.82659864  0.67778796  1.0
  O  O12149  1  0.72215772  0.99326530  0.67778796  1.0
  O  O12150  1  0.80549105  0.15993197  0.67778796  1.0
  O  O12151  1  0.80549105  0.32659864  0.67778796  1.0
  O  O12152  1  0.80549105  0.49326530  0.67778796  1.0
  O  O12153  1  0.80549105  0.65993197  0.67778796  1.0
  O  O12154  1  0.80549105  0.82659864  0.67778796  1.0
  O  O12155  1  0.80549105  0.99326530  0.67778796  1.0
  O  O12156  1  0.88882438  0.15993197  0.67778796  1.0
  O  O12157  1  0.88882438  0.32659864  0.67778796  1.0
  O  O12158  1  0.88882438  0.49326530  0.67778796  1.0
  O  O12159  1  0.88882438  0.65993197  0.67778796  1.0
  O  O12160  1  0.88882438  0.82659864  0.67778796  1.0
  O  O12161  1  0.88882438  0.99326530  0.67778796  1.0
  O  O12162  1  0.97215772  0.15993197  0.67778796  1.0
  O  O12163  1  0.97215772  0.32659864  0.67778796  1.0
  O  O12164  1  0.97215772  0.49326530  0.67778796  1.0
  O  O12165  1  0.97215772  0.65993197  0.67778796  1.0
  O  O12166  1  0.97215772  0.82659864  0.67778796  1.0
  O  O12167  1  0.97215772  0.99326530  0.67778796  1.0
  O  O12168  1  0.05832376  0.11497247  0.66839185  1.0
  O  O12169  1  0.05832376  0.28163914  0.66839185  1.0
  O  O12170  1  0.05832376  0.44830580  0.66839185  1.0
  O  O12171  1  0.05832376  0.61497247  0.66839185  1.0
  O  O12172  1  0.05832376  0.78163914  0.66839185  1.0
  O  O12173  1  0.05832376  0.94830580  0.66839185  1.0
  O  O12174  1  0.14165709  0.11497247  0.66839185  1.0
  O  O12175  1  0.14165709  0.28163914  0.66839185  1.0
  O  O12176  1  0.14165709  0.44830580  0.66839185  1.0
  O  O12177  1  0.14165709  0.61497247  0.66839185  1.0
  O  O12178  1  0.14165709  0.78163914  0.66839185  1.0
  O  O12179  1  0.14165709  0.94830580  0.66839185  1.0
  O  O12180  1  0.22499042  0.11497247  0.66839185  1.0
  O  O12181  1  0.22499042  0.28163914  0.66839185  1.0
  O  O12182  1  0.22499042  0.44830580  0.66839185  1.0
  O  O12183  1  0.22499042  0.61497247  0.66839185  1.0
  O  O12184  1  0.22499042  0.78163914  0.66839185  1.0
  O  O12185  1  0.22499042  0.94830580  0.66839185  1.0
  O  O12186  1  0.30832376  0.11497247  0.66839185  1.0
  O  O12187  1  0.30832376  0.28163914  0.66839185  1.0
  O  O12188  1  0.30832376  0.44830580  0.66839185  1.0
  O  O12189  1  0.30832376  0.61497247  0.66839185  1.0
  O  O12190  1  0.30832376  0.78163914  0.66839185  1.0
  O  O12191  1  0.30832376  0.94830580  0.66839185  1.0
  O  O12192  1  0.39165709  0.11497247  0.66839185  1.0
  O  O12193  1  0.39165709  0.28163914  0.66839185  1.0
  O  O12194  1  0.39165709  0.44830580  0.66839185  1.0
  O  O12195  1  0.39165709  0.61497247  0.66839185  1.0
  O  O12196  1  0.39165709  0.78163914  0.66839185  1.0
  O  O12197  1  0.39165709  0.94830580  0.66839185  1.0
  O  O12198  1  0.47499042  0.11497247  0.66839185  1.0
  O  O12199  1  0.47499042  0.28163914  0.66839185  1.0
  O  O12200  1  0.47499042  0.44830580  0.66839185  1.0
  O  O12201  1  0.47499042  0.61497247  0.66839185  1.0
  O  O12202  1  0.47499042  0.78163914  0.66839185  1.0
  O  O12203  1  0.47499042  0.94830580  0.66839185  1.0
  O  O12204  1  0.55832376  0.11497247  0.66839185  1.0
  O  O12205  1  0.55832376  0.28163914  0.66839185  1.0
  O  O12206  1  0.55832376  0.44830580  0.66839185  1.0
  O  O12207  1  0.55832376  0.61497247  0.66839185  1.0
  O  O12208  1  0.55832376  0.78163914  0.66839185  1.0
  O  O12209  1  0.55832376  0.94830580  0.66839185  1.0
  O  O12210  1  0.64165709  0.11497247  0.66839185  1.0
  O  O12211  1  0.64165709  0.28163914  0.66839185  1.0
  O  O12212  1  0.64165709  0.44830580  0.66839185  1.0
  O  O12213  1  0.64165709  0.61497247  0.66839185  1.0
  O  O12214  1  0.64165709  0.78163914  0.66839185  1.0
  O  O12215  1  0.64165709  0.94830580  0.66839185  1.0
  O  O12216  1  0.72499042  0.11497247  0.66839185  1.0
  O  O12217  1  0.72499042  0.28163914  0.66839185  1.0
  O  O12218  1  0.72499042  0.44830580  0.66839185  1.0
  O  O12219  1  0.72499042  0.61497247  0.66839185  1.0
  O  O12220  1  0.72499042  0.78163914  0.66839185  1.0
  O  O12221  1  0.72499042  0.94830580  0.66839185  1.0
  O  O12222  1  0.80832376  0.11497247  0.66839185  1.0
  O  O12223  1  0.80832376  0.28163914  0.66839185  1.0
  O  O12224  1  0.80832376  0.44830580  0.66839185  1.0
  O  O12225  1  0.80832376  0.61497247  0.66839185  1.0
  O  O12226  1  0.80832376  0.78163914  0.66839185  1.0
  O  O12227  1  0.80832376  0.94830580  0.66839185  1.0
  O  O12228  1  0.89165709  0.11497247  0.66839185  1.0
  O  O12229  1  0.89165709  0.28163914  0.66839185  1.0
  O  O12230  1  0.89165709  0.44830580  0.66839185  1.0
  O  O12231  1  0.89165709  0.61497247  0.66839185  1.0
  O  O12232  1  0.89165709  0.78163914  0.66839185  1.0
  O  O12233  1  0.89165709  0.94830580  0.66839185  1.0
  O  O12234  1  0.97499042  0.11497247  0.66839185  1.0
  O  O12235  1  0.97499042  0.28163914  0.66839185  1.0
  O  O12236  1  0.97499042  0.44830580  0.66839185  1.0
  O  O12237  1  0.97499042  0.61497247  0.66839185  1.0
  O  O12238  1  0.97499042  0.78163914  0.66839185  1.0
  O  O12239  1  0.97499042  0.94830580  0.66839185  1.0
  O  O12240  1  0.00423302  0.10974254  0.70366261  1.0
  O  O12241  1  0.00423302  0.27640921  0.70366261  1.0
  O  O12242  1  0.00423302  0.44307588  0.70366261  1.0
  O  O12243  1  0.00423302  0.60974254  0.70366261  1.0
  O  O12244  1  0.00423302  0.77640921  0.70366261  1.0
  O  O12245  1  0.00423302  0.94307588  0.70366261  1.0
  O  O12246  1  0.08756635  0.10974254  0.70366261  1.0
  O  O12247  1  0.08756635  0.27640921  0.70366261  1.0
  O  O12248  1  0.08756635  0.44307588  0.70366261  1.0
  O  O12249  1  0.08756635  0.60974254  0.70366261  1.0
  O  O12250  1  0.08756635  0.77640921  0.70366261  1.0
  O  O12251  1  0.08756635  0.94307588  0.70366261  1.0
  O  O12252  1  0.17089969  0.10974254  0.70366261  1.0
  O  O12253  1  0.17089969  0.27640921  0.70366261  1.0
  O  O12254  1  0.17089969  0.44307588  0.70366261  1.0
  O  O12255  1  0.17089969  0.60974254  0.70366261  1.0
  O  O12256  1  0.17089969  0.77640921  0.70366261  1.0
  O  O12257  1  0.17089969  0.94307588  0.70366261  1.0
  O  O12258  1  0.25423302  0.10974254  0.70366261  1.0
  O  O12259  1  0.25423302  0.27640921  0.70366261  1.0
  O  O12260  1  0.25423302  0.44307588  0.70366261  1.0
  O  O12261  1  0.25423302  0.60974254  0.70366261  1.0
  O  O12262  1  0.25423302  0.77640921  0.70366261  1.0
  O  O12263  1  0.25423302  0.94307588  0.70366261  1.0
  O  O12264  1  0.33756635  0.10974254  0.70366261  1.0
  O  O12265  1  0.33756635  0.27640921  0.70366261  1.0
  O  O12266  1  0.33756635  0.44307588  0.70366261  1.0
  O  O12267  1  0.33756635  0.60974254  0.70366261  1.0
  O  O12268  1  0.33756635  0.77640921  0.70366261  1.0
  O  O12269  1  0.33756635  0.94307588  0.70366261  1.0
  O  O12270  1  0.42089969  0.10974254  0.70366261  1.0
  O  O12271  1  0.42089969  0.27640921  0.70366261  1.0
  O  O12272  1  0.42089969  0.44307588  0.70366261  1.0
  O  O12273  1  0.42089969  0.60974254  0.70366261  1.0
  O  O12274  1  0.42089969  0.77640921  0.70366261  1.0
  O  O12275  1  0.42089969  0.94307588  0.70366261  1.0
  O  O12276  1  0.50423302  0.10974254  0.70366261  1.0
  O  O12277  1  0.50423302  0.27640921  0.70366261  1.0
  O  O12278  1  0.50423302  0.44307588  0.70366261  1.0
  O  O12279  1  0.50423302  0.60974254  0.70366261  1.0
  O  O12280  1  0.50423302  0.77640921  0.70366261  1.0
  O  O12281  1  0.50423302  0.94307588  0.70366261  1.0
  O  O12282  1  0.58756635  0.10974254  0.70366261  1.0
  O  O12283  1  0.58756635  0.27640921  0.70366261  1.0
  O  O12284  1  0.58756635  0.44307588  0.70366261  1.0
  O  O12285  1  0.58756635  0.60974254  0.70366261  1.0
  O  O12286  1  0.58756635  0.77640921  0.70366261  1.0
  O  O12287  1  0.58756635  0.94307588  0.70366261  1.0
  O  O12288  1  0.67089969  0.10974254  0.70366261  1.0
  O  O12289  1  0.67089969  0.27640921  0.70366261  1.0
  O  O12290  1  0.67089969  0.44307588  0.70366261  1.0
  O  O12291  1  0.67089969  0.60974254  0.70366261  1.0
  O  O12292  1  0.67089969  0.77640921  0.70366261  1.0
  O  O12293  1  0.67089969  0.94307588  0.70366261  1.0
  O  O12294  1  0.75423302  0.10974254  0.70366261  1.0
  O  O12295  1  0.75423302  0.27640921  0.70366261  1.0
  O  O12296  1  0.75423302  0.44307588  0.70366261  1.0
  O  O12297  1  0.75423302  0.60974254  0.70366261  1.0
  O  O12298  1  0.75423302  0.77640921  0.70366261  1.0
  O  O12299  1  0.75423302  0.94307588  0.70366261  1.0
  O  O12300  1  0.83756635  0.10974254  0.70366261  1.0
  O  O12301  1  0.83756635  0.27640921  0.70366261  1.0
  O  O12302  1  0.83756635  0.44307588  0.70366261  1.0
  O  O12303  1  0.83756635  0.60974254  0.70366261  1.0
  O  O12304  1  0.83756635  0.77640921  0.70366261  1.0
  O  O12305  1  0.83756635  0.94307588  0.70366261  1.0
  O  O12306  1  0.92089969  0.10974254  0.70366261  1.0
  O  O12307  1  0.92089969  0.27640921  0.70366261  1.0
  O  O12308  1  0.92089969  0.44307588  0.70366261  1.0
  O  O12309  1  0.92089969  0.60974254  0.70366261  1.0
  O  O12310  1  0.92089969  0.77640921  0.70366261  1.0
  O  O12311  1  0.92089969  0.94307588  0.70366261  1.0
  O  O12312  1  0.00140332  0.15469785  0.71306370  1.0
  O  O12313  1  0.00140332  0.32136452  0.71306370  1.0
  O  O12314  1  0.00140332  0.48803119  0.71306370  1.0
  O  O12315  1  0.00140332  0.65469785  0.71306370  1.0
  O  O12316  1  0.00140332  0.82136452  0.71306370  1.0
  O  O12317  1  0.00140332  0.98803119  0.71306370  1.0
  O  O12318  1  0.08473665  0.15469785  0.71306370  1.0
  O  O12319  1  0.08473665  0.32136452  0.71306370  1.0
  O  O12320  1  0.08473665  0.48803119  0.71306370  1.0
  O  O12321  1  0.08473665  0.65469785  0.71306370  1.0
  O  O12322  1  0.08473665  0.82136452  0.71306370  1.0
  O  O12323  1  0.08473665  0.98803119  0.71306370  1.0
  O  O12324  1  0.16806998  0.15469785  0.71306370  1.0
  O  O12325  1  0.16806998  0.32136452  0.71306370  1.0
  O  O12326  1  0.16806998  0.48803119  0.71306370  1.0
  O  O12327  1  0.16806998  0.65469785  0.71306370  1.0
  O  O12328  1  0.16806998  0.82136452  0.71306370  1.0
  O  O12329  1  0.16806998  0.98803119  0.71306370  1.0
  O  O12330  1  0.25140332  0.15469785  0.71306370  1.0
  O  O12331  1  0.25140332  0.32136452  0.71306370  1.0
  O  O12332  1  0.25140332  0.48803119  0.71306370  1.0
  O  O12333  1  0.25140332  0.65469785  0.71306370  1.0
  O  O12334  1  0.25140332  0.82136452  0.71306370  1.0
  O  O12335  1  0.25140332  0.98803119  0.71306370  1.0
  O  O12336  1  0.33473665  0.15469785  0.71306370  1.0
  O  O12337  1  0.33473665  0.32136452  0.71306370  1.0
  O  O12338  1  0.33473665  0.48803119  0.71306370  1.0
  O  O12339  1  0.33473665  0.65469785  0.71306370  1.0
  O  O12340  1  0.33473665  0.82136452  0.71306370  1.0
  O  O12341  1  0.33473665  0.98803119  0.71306370  1.0
  O  O12342  1  0.41806998  0.15469785  0.71306370  1.0
  O  O12343  1  0.41806998  0.32136452  0.71306370  1.0
  O  O12344  1  0.41806998  0.48803119  0.71306370  1.0
  O  O12345  1  0.41806998  0.65469785  0.71306370  1.0
  O  O12346  1  0.41806998  0.82136452  0.71306370  1.0
  O  O12347  1  0.41806998  0.98803119  0.71306370  1.0
  O  O12348  1  0.50140332  0.15469785  0.71306370  1.0
  O  O12349  1  0.50140332  0.32136452  0.71306370  1.0
  O  O12350  1  0.50140332  0.48803119  0.71306370  1.0
  O  O12351  1  0.50140332  0.65469785  0.71306370  1.0
  O  O12352  1  0.50140332  0.82136452  0.71306370  1.0
  O  O12353  1  0.50140332  0.98803119  0.71306370  1.0
  O  O12354  1  0.58473665  0.15469785  0.71306370  1.0
  O  O12355  1  0.58473665  0.32136452  0.71306370  1.0
  O  O12356  1  0.58473665  0.48803119  0.71306370  1.0
  O  O12357  1  0.58473665  0.65469785  0.71306370  1.0
  O  O12358  1  0.58473665  0.82136452  0.71306370  1.0
  O  O12359  1  0.58473665  0.98803119  0.71306370  1.0
  O  O12360  1  0.66806998  0.15469785  0.71306370  1.0
  O  O12361  1  0.66806998  0.32136452  0.71306370  1.0
  O  O12362  1  0.66806998  0.48803119  0.71306370  1.0
  O  O12363  1  0.66806998  0.65469785  0.71306370  1.0
  O  O12364  1  0.66806998  0.82136452  0.71306370  1.0
  O  O12365  1  0.66806998  0.98803119  0.71306370  1.0
  O  O12366  1  0.75140332  0.15469785  0.71306370  1.0
  O  O12367  1  0.75140332  0.32136452  0.71306370  1.0
  O  O12368  1  0.75140332  0.48803119  0.71306370  1.0
  O  O12369  1  0.75140332  0.65469785  0.71306370  1.0
  O  O12370  1  0.75140332  0.82136452  0.71306370  1.0
  O  O12371  1  0.75140332  0.98803119  0.71306370  1.0
  O  O12372  1  0.83473665  0.15469785  0.71306370  1.0
  O  O12373  1  0.83473665  0.32136452  0.71306370  1.0
  O  O12374  1  0.83473665  0.48803119  0.71306370  1.0
  O  O12375  1  0.83473665  0.65469785  0.71306370  1.0
  O  O12376  1  0.83473665  0.82136452  0.71306370  1.0
  O  O12377  1  0.83473665  0.98803119  0.71306370  1.0
  O  O12378  1  0.91806998  0.15469785  0.71306370  1.0
  O  O12379  1  0.91806998  0.32136452  0.71306370  1.0
  O  O12380  1  0.91806998  0.48803119  0.71306370  1.0
  O  O12381  1  0.91806998  0.65469785  0.71306370  1.0
  O  O12382  1  0.91806998  0.82136452  0.71306370  1.0
  O  O12383  1  0.91806998  0.98803119  0.71306370  1.0
  O  O12384  1  0.02266923  0.04650522  0.65366126  1.0
  O  O12385  1  0.02266923  0.21317189  0.65366126  1.0
  O  O12386  1  0.02266923  0.37983855  0.65366126  1.0
  O  O12387  1  0.02266923  0.54650522  0.65366126  1.0
  O  O12388  1  0.02266923  0.71317189  0.65366126  1.0
  O  O12389  1  0.02266923  0.87983855  0.65366126  1.0
  O  O12390  1  0.10600256  0.04650522  0.65366126  1.0
  O  O12391  1  0.10600256  0.21317189  0.65366126  1.0
  O  O12392  1  0.10600256  0.37983855  0.65366126  1.0
  O  O12393  1  0.10600256  0.54650522  0.65366126  1.0
  O  O12394  1  0.10600256  0.71317189  0.65366126  1.0
  O  O12395  1  0.10600256  0.87983855  0.65366126  1.0
  O  O12396  1  0.18933589  0.04650522  0.65366126  1.0
  O  O12397  1  0.18933589  0.21317189  0.65366126  1.0
  O  O12398  1  0.18933589  0.37983855  0.65366126  1.0
  O  O12399  1  0.18933589  0.54650522  0.65366126  1.0
  O  O12400  1  0.18933589  0.71317189  0.65366126  1.0
  O  O12401  1  0.18933589  0.87983855  0.65366126  1.0
  O  O12402  1  0.27266923  0.04650522  0.65366126  1.0
  O  O12403  1  0.27266923  0.21317189  0.65366126  1.0
  O  O12404  1  0.27266923  0.37983855  0.65366126  1.0
  O  O12405  1  0.27266923  0.54650522  0.65366126  1.0
  O  O12406  1  0.27266923  0.71317189  0.65366126  1.0
  O  O12407  1  0.27266923  0.87983855  0.65366126  1.0
  O  O12408  1  0.35600256  0.04650522  0.65366126  1.0
  O  O12409  1  0.35600256  0.21317189  0.65366126  1.0
  O  O12410  1  0.35600256  0.37983855  0.65366126  1.0
  O  O12411  1  0.35600256  0.54650522  0.65366126  1.0
  O  O12412  1  0.35600256  0.71317189  0.65366126  1.0
  O  O12413  1  0.35600256  0.87983855  0.65366126  1.0
  O  O12414  1  0.43933589  0.04650522  0.65366126  1.0
  O  O12415  1  0.43933589  0.21317189  0.65366126  1.0
  O  O12416  1  0.43933589  0.37983855  0.65366126  1.0
  O  O12417  1  0.43933589  0.54650522  0.65366126  1.0
  O  O12418  1  0.43933589  0.71317189  0.65366126  1.0
  O  O12419  1  0.43933589  0.87983855  0.65366126  1.0
  O  O12420  1  0.52266923  0.04650522  0.65366126  1.0
  O  O12421  1  0.52266923  0.21317189  0.65366126  1.0
  O  O12422  1  0.52266923  0.37983855  0.65366126  1.0
  O  O12423  1  0.52266923  0.54650522  0.65366126  1.0
  O  O12424  1  0.52266923  0.71317189  0.65366126  1.0
  O  O12425  1  0.52266923  0.87983855  0.65366126  1.0
  O  O12426  1  0.60600256  0.04650522  0.65366126  1.0
  O  O12427  1  0.60600256  0.21317189  0.65366126  1.0
  O  O12428  1  0.60600256  0.37983855  0.65366126  1.0
  O  O12429  1  0.60600256  0.54650522  0.65366126  1.0
  O  O12430  1  0.60600256  0.71317189  0.65366126  1.0
  O  O12431  1  0.60600256  0.87983855  0.65366126  1.0
  O  O12432  1  0.68933589  0.04650522  0.65366126  1.0
  O  O12433  1  0.68933589  0.21317189  0.65366126  1.0
  O  O12434  1  0.68933589  0.37983855  0.65366126  1.0
  O  O12435  1  0.68933589  0.54650522  0.65366126  1.0
  O  O12436  1  0.68933589  0.71317189  0.65366126  1.0
  O  O12437  1  0.68933589  0.87983855  0.65366126  1.0
  O  O12438  1  0.77266923  0.04650522  0.65366126  1.0
  O  O12439  1  0.77266923  0.21317189  0.65366126  1.0
  O  O12440  1  0.77266923  0.37983855  0.65366126  1.0
  O  O12441  1  0.77266923  0.54650522  0.65366126  1.0
  O  O12442  1  0.77266923  0.71317189  0.65366126  1.0
  O  O12443  1  0.77266923  0.87983855  0.65366126  1.0
  O  O12444  1  0.85600256  0.04650522  0.65366126  1.0
  O  O12445  1  0.85600256  0.21317189  0.65366126  1.0
  O  O12446  1  0.85600256  0.37983855  0.65366126  1.0
  O  O12447  1  0.85600256  0.54650522  0.65366126  1.0
  O  O12448  1  0.85600256  0.71317189  0.65366126  1.0
  O  O12449  1  0.85600256  0.87983855  0.65366126  1.0
  O  O12450  1  0.93933589  0.04650522  0.65366126  1.0
  O  O12451  1  0.93933589  0.21317189  0.65366126  1.0
  O  O12452  1  0.93933589  0.37983855  0.65366126  1.0
  O  O12453  1  0.93933589  0.54650522  0.65366126  1.0
  O  O12454  1  0.93933589  0.71317189  0.65366126  1.0
  O  O12455  1  0.93933589  0.87983855  0.65366126  1.0
  O  O12456  1  0.08219304  0.03460046  0.72508983  1.0
  O  O12457  1  0.08219304  0.20126713  0.72508983  1.0
  O  O12458  1  0.08219304  0.36793379  0.72508983  1.0
  O  O12459  1  0.08219304  0.53460046  0.72508983  1.0
  O  O12460  1  0.08219304  0.70126713  0.72508983  1.0
  O  O12461  1  0.08219304  0.86793379  0.72508983  1.0
  O  O12462  1  0.16552637  0.03460046  0.72508983  1.0
  O  O12463  1  0.16552637  0.20126713  0.72508983  1.0
  O  O12464  1  0.16552637  0.36793379  0.72508983  1.0
  O  O12465  1  0.16552637  0.53460046  0.72508983  1.0
  O  O12466  1  0.16552637  0.70126713  0.72508983  1.0
  O  O12467  1  0.16552637  0.86793379  0.72508983  1.0
  O  O12468  1  0.24885970  0.03460046  0.72508983  1.0
  O  O12469  1  0.24885970  0.20126713  0.72508983  1.0
  O  O12470  1  0.24885970  0.36793379  0.72508983  1.0
  O  O12471  1  0.24885970  0.53460046  0.72508983  1.0
  O  O12472  1  0.24885970  0.70126713  0.72508983  1.0
  O  O12473  1  0.24885970  0.86793379  0.72508983  1.0
  O  O12474  1  0.33219304  0.03460046  0.72508983  1.0
  O  O12475  1  0.33219304  0.20126713  0.72508983  1.0
  O  O12476  1  0.33219304  0.36793379  0.72508983  1.0
  O  O12477  1  0.33219304  0.53460046  0.72508983  1.0
  O  O12478  1  0.33219304  0.70126713  0.72508983  1.0
  O  O12479  1  0.33219304  0.86793379  0.72508983  1.0
  O  O12480  1  0.41552637  0.03460046  0.72508983  1.0
  O  O12481  1  0.41552637  0.20126713  0.72508983  1.0
  O  O12482  1  0.41552637  0.36793379  0.72508983  1.0
  O  O12483  1  0.41552637  0.53460046  0.72508983  1.0
  O  O12484  1  0.41552637  0.70126713  0.72508983  1.0
  O  O12485  1  0.41552637  0.86793379  0.72508983  1.0
  O  O12486  1  0.49885970  0.03460046  0.72508983  1.0
  O  O12487  1  0.49885970  0.20126713  0.72508983  1.0
  O  O12488  1  0.49885970  0.36793379  0.72508983  1.0
  O  O12489  1  0.49885970  0.53460046  0.72508983  1.0
  O  O12490  1  0.49885970  0.70126713  0.72508983  1.0
  O  O12491  1  0.49885970  0.86793379  0.72508983  1.0
  O  O12492  1  0.58219304  0.03460046  0.72508983  1.0
  O  O12493  1  0.58219304  0.20126713  0.72508983  1.0
  O  O12494  1  0.58219304  0.36793379  0.72508983  1.0
  O  O12495  1  0.58219304  0.53460046  0.72508983  1.0
  O  O12496  1  0.58219304  0.70126713  0.72508983  1.0
  O  O12497  1  0.58219304  0.86793379  0.72508983  1.0
  O  O12498  1  0.66552637  0.03460046  0.72508983  1.0
  O  O12499  1  0.66552637  0.20126713  0.72508983  1.0
  O  O12500  1  0.66552637  0.36793379  0.72508983  1.0
  O  O12501  1  0.66552637  0.53460046  0.72508983  1.0
  O  O12502  1  0.66552637  0.70126713  0.72508983  1.0
  O  O12503  1  0.66552637  0.86793379  0.72508983  1.0
  O  O12504  1  0.74885970  0.03460046  0.72508983  1.0
  O  O12505  1  0.74885970  0.20126713  0.72508983  1.0
  O  O12506  1  0.74885970  0.36793379  0.72508983  1.0
  O  O12507  1  0.74885970  0.53460046  0.72508983  1.0
  O  O12508  1  0.74885970  0.70126713  0.72508983  1.0
  O  O12509  1  0.74885970  0.86793379  0.72508983  1.0
  O  O12510  1  0.83219304  0.03460046  0.72508983  1.0
  O  O12511  1  0.83219304  0.20126713  0.72508983  1.0
  O  O12512  1  0.83219304  0.36793379  0.72508983  1.0
  O  O12513  1  0.83219304  0.53460046  0.72508983  1.0
  O  O12514  1  0.83219304  0.70126713  0.72508983  1.0
  O  O12515  1  0.83219304  0.86793379  0.72508983  1.0
  O  O12516  1  0.91552637  0.03460046  0.72508983  1.0
  O  O12517  1  0.91552637  0.20126713  0.72508983  1.0
  O  O12518  1  0.91552637  0.36793379  0.72508983  1.0
  O  O12519  1  0.91552637  0.53460046  0.72508983  1.0
  O  O12520  1  0.91552637  0.70126713  0.72508983  1.0
  O  O12521  1  0.91552637  0.86793379  0.72508983  1.0
  O  O12522  1  0.99885970  0.03460046  0.72508983  1.0
  O  O12523  1  0.99885970  0.20126713  0.72508983  1.0
  O  O12524  1  0.99885970  0.36793379  0.72508983  1.0
  O  O12525  1  0.99885970  0.53460046  0.72508983  1.0
  O  O12526  1  0.99885970  0.70126713  0.72508983  1.0
  O  O12527  1  0.99885970  0.86793379  0.72508983  1.0
  O  O12528  1  0.04473773  0.13240105  0.70865193  1.0
  O  O12529  1  0.04473773  0.29906772  0.70865193  1.0
  O  O12530  1  0.04473773  0.46573439  0.70865193  1.0
  O  O12531  1  0.04473773  0.63240105  0.70865193  1.0
  O  O12532  1  0.04473773  0.79906772  0.70865193  1.0
  O  O12533  1  0.04473773  0.96573439  0.70865193  1.0
  O  O12534  1  0.12807106  0.13240105  0.70865193  1.0
  O  O12535  1  0.12807106  0.29906772  0.70865193  1.0
  O  O12536  1  0.12807106  0.46573439  0.70865193  1.0
  O  O12537  1  0.12807106  0.63240105  0.70865193  1.0
  O  O12538  1  0.12807106  0.79906772  0.70865193  1.0
  O  O12539  1  0.12807106  0.96573439  0.70865193  1.0
  O  O12540  1  0.21140440  0.13240105  0.70865193  1.0
  O  O12541  1  0.21140440  0.29906772  0.70865193  1.0
  O  O12542  1  0.21140440  0.46573439  0.70865193  1.0
  O  O12543  1  0.21140440  0.63240105  0.70865193  1.0
  O  O12544  1  0.21140440  0.79906772  0.70865193  1.0
  O  O12545  1  0.21140440  0.96573439  0.70865193  1.0
  O  O12546  1  0.29473773  0.13240105  0.70865193  1.0
  O  O12547  1  0.29473773  0.29906772  0.70865193  1.0
  O  O12548  1  0.29473773  0.46573439  0.70865193  1.0
  O  O12549  1  0.29473773  0.63240105  0.70865193  1.0
  O  O12550  1  0.29473773  0.79906772  0.70865193  1.0
  O  O12551  1  0.29473773  0.96573439  0.70865193  1.0
  O  O12552  1  0.37807106  0.13240105  0.70865193  1.0
  O  O12553  1  0.37807106  0.29906772  0.70865193  1.0
  O  O12554  1  0.37807106  0.46573439  0.70865193  1.0
  O  O12555  1  0.37807106  0.63240105  0.70865193  1.0
  O  O12556  1  0.37807106  0.79906772  0.70865193  1.0
  O  O12557  1  0.37807106  0.96573439  0.70865193  1.0
  O  O12558  1  0.46140440  0.13240105  0.70865193  1.0
  O  O12559  1  0.46140440  0.29906772  0.70865193  1.0
  O  O12560  1  0.46140440  0.46573439  0.70865193  1.0
  O  O12561  1  0.46140440  0.63240105  0.70865193  1.0
  O  O12562  1  0.46140440  0.79906772  0.70865193  1.0
  O  O12563  1  0.46140440  0.96573439  0.70865193  1.0
  O  O12564  1  0.54473773  0.13240105  0.70865193  1.0
  O  O12565  1  0.54473773  0.29906772  0.70865193  1.0
  O  O12566  1  0.54473773  0.46573439  0.70865193  1.0
  O  O12567  1  0.54473773  0.63240105  0.70865193  1.0
  O  O12568  1  0.54473773  0.79906772  0.70865193  1.0
  O  O12569  1  0.54473773  0.96573439  0.70865193  1.0
  O  O12570  1  0.62807106  0.13240105  0.70865193  1.0
  O  O12571  1  0.62807106  0.29906772  0.70865193  1.0
  O  O12572  1  0.62807106  0.46573439  0.70865193  1.0
  O  O12573  1  0.62807106  0.63240105  0.70865193  1.0
  O  O12574  1  0.62807106  0.79906772  0.70865193  1.0
  O  O12575  1  0.62807106  0.96573439  0.70865193  1.0
  O  O12576  1  0.71140440  0.13240105  0.70865193  1.0
  O  O12577  1  0.71140440  0.29906772  0.70865193  1.0
  O  O12578  1  0.71140440  0.46573439  0.70865193  1.0
  O  O12579  1  0.71140440  0.63240105  0.70865193  1.0
  O  O12580  1  0.71140440  0.79906772  0.70865193  1.0
  O  O12581  1  0.71140440  0.96573439  0.70865193  1.0
  O  O12582  1  0.79473773  0.13240105  0.70865193  1.0
  O  O12583  1  0.79473773  0.29906772  0.70865193  1.0
  O  O12584  1  0.79473773  0.46573439  0.70865193  1.0
  O  O12585  1  0.79473773  0.63240105  0.70865193  1.0
  O  O12586  1  0.79473773  0.79906772  0.70865193  1.0
  O  O12587  1  0.79473773  0.96573439  0.70865193  1.0
  O  O12588  1  0.87807106  0.13240105  0.70865193  1.0
  O  O12589  1  0.87807106  0.29906772  0.70865193  1.0
  O  O12590  1  0.87807106  0.46573439  0.70865193  1.0
  O  O12591  1  0.87807106  0.63240105  0.70865193  1.0
  O  O12592  1  0.87807106  0.79906772  0.70865193  1.0
  O  O12593  1  0.87807106  0.96573439  0.70865193  1.0
  O  O12594  1  0.96140440  0.13240105  0.70865193  1.0
  O  O12595  1  0.96140440  0.29906772  0.70865193  1.0
  O  O12596  1  0.96140440  0.46573439  0.70865193  1.0
  O  O12597  1  0.96140440  0.63240105  0.70865193  1.0
  O  O12598  1  0.96140440  0.79906772  0.70865193  1.0
  O  O12599  1  0.96140440  0.96573439  0.70865193  1.0
  O  O12600  1  0.00852260  0.06389977  0.69430548  1.0
  O  O12601  1  0.00852260  0.23056643  0.69430548  1.0
  O  O12602  1  0.00852260  0.39723310  0.69430548  1.0
  O  O12603  1  0.00852260  0.56389977  0.69430548  1.0
  O  O12604  1  0.00852260  0.73056643  0.69430548  1.0
  O  O12605  1  0.00852260  0.89723310  0.69430548  1.0
  O  O12606  1  0.09185594  0.06389977  0.69430548  1.0
  O  O12607  1  0.09185594  0.23056643  0.69430548  1.0
  O  O12608  1  0.09185594  0.39723310  0.69430548  1.0
  O  O12609  1  0.09185594  0.56389977  0.69430548  1.0
  O  O12610  1  0.09185594  0.73056643  0.69430548  1.0
  O  O12611  1  0.09185594  0.89723310  0.69430548  1.0
  O  O12612  1  0.17518927  0.06389977  0.69430548  1.0
  O  O12613  1  0.17518927  0.23056643  0.69430548  1.0
  O  O12614  1  0.17518927  0.39723310  0.69430548  1.0
  O  O12615  1  0.17518927  0.56389977  0.69430548  1.0
  O  O12616  1  0.17518927  0.73056643  0.69430548  1.0
  O  O12617  1  0.17518927  0.89723310  0.69430548  1.0
  O  O12618  1  0.25852260  0.06389977  0.69430548  1.0
  O  O12619  1  0.25852260  0.23056643  0.69430548  1.0
  O  O12620  1  0.25852260  0.39723310  0.69430548  1.0
  O  O12621  1  0.25852260  0.56389977  0.69430548  1.0
  O  O12622  1  0.25852260  0.73056643  0.69430548  1.0
  O  O12623  1  0.25852260  0.89723310  0.69430548  1.0
  O  O12624  1  0.34185594  0.06389977  0.69430548  1.0
  O  O12625  1  0.34185594  0.23056643  0.69430548  1.0
  O  O12626  1  0.34185594  0.39723310  0.69430548  1.0
  O  O12627  1  0.34185594  0.56389977  0.69430548  1.0
  O  O12628  1  0.34185594  0.73056643  0.69430548  1.0
  O  O12629  1  0.34185594  0.89723310  0.69430548  1.0
  O  O12630  1  0.42518927  0.06389977  0.69430548  1.0
  O  O12631  1  0.42518927  0.23056643  0.69430548  1.0
  O  O12632  1  0.42518927  0.39723310  0.69430548  1.0
  O  O12633  1  0.42518927  0.56389977  0.69430548  1.0
  O  O12634  1  0.42518927  0.73056643  0.69430548  1.0
  O  O12635  1  0.42518927  0.89723310  0.69430548  1.0
  O  O12636  1  0.50852260  0.06389977  0.69430548  1.0
  O  O12637  1  0.50852260  0.23056643  0.69430548  1.0
  O  O12638  1  0.50852260  0.39723310  0.69430548  1.0
  O  O12639  1  0.50852260  0.56389977  0.69430548  1.0
  O  O12640  1  0.50852260  0.73056643  0.69430548  1.0
  O  O12641  1  0.50852260  0.89723310  0.69430548  1.0
  O  O12642  1  0.59185594  0.06389977  0.69430548  1.0
  O  O12643  1  0.59185594  0.23056643  0.69430548  1.0
  O  O12644  1  0.59185594  0.39723310  0.69430548  1.0
  O  O12645  1  0.59185594  0.56389977  0.69430548  1.0
  O  O12646  1  0.59185594  0.73056643  0.69430548  1.0
  O  O12647  1  0.59185594  0.89723310  0.69430548  1.0
  O  O12648  1  0.67518927  0.06389977  0.69430548  1.0
  O  O12649  1  0.67518927  0.23056643  0.69430548  1.0
  O  O12650  1  0.67518927  0.39723310  0.69430548  1.0
  O  O12651  1  0.67518927  0.56389977  0.69430548  1.0
  O  O12652  1  0.67518927  0.73056643  0.69430548  1.0
  O  O12653  1  0.67518927  0.89723310  0.69430548  1.0
  O  O12654  1  0.75852260  0.06389977  0.69430548  1.0
  O  O12655  1  0.75852260  0.23056643  0.69430548  1.0
  O  O12656  1  0.75852260  0.39723310  0.69430548  1.0
  O  O12657  1  0.75852260  0.56389977  0.69430548  1.0
  O  O12658  1  0.75852260  0.73056643  0.69430548  1.0
  O  O12659  1  0.75852260  0.89723310  0.69430548  1.0
  O  O12660  1  0.84185594  0.06389977  0.69430548  1.0
  O  O12661  1  0.84185594  0.23056643  0.69430548  1.0
  O  O12662  1  0.84185594  0.39723310  0.69430548  1.0
  O  O12663  1  0.84185594  0.56389977  0.69430548  1.0
  O  O12664  1  0.84185594  0.73056643  0.69430548  1.0
  O  O12665  1  0.84185594  0.89723310  0.69430548  1.0
  O  O12666  1  0.92518927  0.06389977  0.69430548  1.0
  O  O12667  1  0.92518927  0.23056643  0.69430548  1.0
  O  O12668  1  0.92518927  0.39723310  0.69430548  1.0
  O  O12669  1  0.92518927  0.56389977  0.69430548  1.0
  O  O12670  1  0.92518927  0.73056643  0.69430548  1.0
  O  O12671  1  0.92518927  0.89723310  0.69430548  1.0
  O  O12672  1  0.05073655  0.08606736  0.69768524  1.0
  O  O12673  1  0.05073655  0.25273403  0.69768524  1.0
  O  O12674  1  0.05073655  0.41940070  0.69768524  1.0
  O  O12675  1  0.05073655  0.58606736  0.69768524  1.0
  O  O12676  1  0.05073655  0.75273403  0.69768524  1.0
  O  O12677  1  0.05073655  0.91940070  0.69768524  1.0
  O  O12678  1  0.13406988  0.08606736  0.69768524  1.0
  O  O12679  1  0.13406988  0.25273403  0.69768524  1.0
  O  O12680  1  0.13406988  0.41940070  0.69768524  1.0
  O  O12681  1  0.13406988  0.58606736  0.69768524  1.0
  O  O12682  1  0.13406988  0.75273403  0.69768524  1.0
  O  O12683  1  0.13406988  0.91940070  0.69768524  1.0
  O  O12684  1  0.21740322  0.08606736  0.69768524  1.0
  O  O12685  1  0.21740322  0.25273403  0.69768524  1.0
  O  O12686  1  0.21740322  0.41940070  0.69768524  1.0
  O  O12687  1  0.21740322  0.58606736  0.69768524  1.0
  O  O12688  1  0.21740322  0.75273403  0.69768524  1.0
  O  O12689  1  0.21740322  0.91940070  0.69768524  1.0
  O  O12690  1  0.30073655  0.08606736  0.69768524  1.0
  O  O12691  1  0.30073655  0.25273403  0.69768524  1.0
  O  O12692  1  0.30073655  0.41940070  0.69768524  1.0
  O  O12693  1  0.30073655  0.58606736  0.69768524  1.0
  O  O12694  1  0.30073655  0.75273403  0.69768524  1.0
  O  O12695  1  0.30073655  0.91940070  0.69768524  1.0
  O  O12696  1  0.38406988  0.08606736  0.69768524  1.0
  O  O12697  1  0.38406988  0.25273403  0.69768524  1.0
  O  O12698  1  0.38406988  0.41940070  0.69768524  1.0
  O  O12699  1  0.38406988  0.58606736  0.69768524  1.0
  O  O12700  1  0.38406988  0.75273403  0.69768524  1.0
  O  O12701  1  0.38406988  0.91940070  0.69768524  1.0
  O  O12702  1  0.46740322  0.08606736  0.69768524  1.0
  O  O12703  1  0.46740322  0.25273403  0.69768524  1.0
  O  O12704  1  0.46740322  0.41940070  0.69768524  1.0
  O  O12705  1  0.46740322  0.58606736  0.69768524  1.0
  O  O12706  1  0.46740322  0.75273403  0.69768524  1.0
  O  O12707  1  0.46740322  0.91940070  0.69768524  1.0
  O  O12708  1  0.55073655  0.08606736  0.69768524  1.0
  O  O12709  1  0.55073655  0.25273403  0.69768524  1.0
  O  O12710  1  0.55073655  0.41940070  0.69768524  1.0
  O  O12711  1  0.55073655  0.58606736  0.69768524  1.0
  O  O12712  1  0.55073655  0.75273403  0.69768524  1.0
  O  O12713  1  0.55073655  0.91940070  0.69768524  1.0
  O  O12714  1  0.63406988  0.08606736  0.69768524  1.0
  O  O12715  1  0.63406988  0.25273403  0.69768524  1.0
  O  O12716  1  0.63406988  0.41940070  0.69768524  1.0
  O  O12717  1  0.63406988  0.58606736  0.69768524  1.0
  O  O12718  1  0.63406988  0.75273403  0.69768524  1.0
  O  O12719  1  0.63406988  0.91940070  0.69768524  1.0
  O  O12720  1  0.71740322  0.08606736  0.69768524  1.0
  O  O12721  1  0.71740322  0.25273403  0.69768524  1.0
  O  O12722  1  0.71740322  0.41940070  0.69768524  1.0
  O  O12723  1  0.71740322  0.58606736  0.69768524  1.0
  O  O12724  1  0.71740322  0.75273403  0.69768524  1.0
  O  O12725  1  0.71740322  0.91940070  0.69768524  1.0
  O  O12726  1  0.80073655  0.08606736  0.69768524  1.0
  O  O12727  1  0.80073655  0.25273403  0.69768524  1.0
  O  O12728  1  0.80073655  0.41940070  0.69768524  1.0
  O  O12729  1  0.80073655  0.58606736  0.69768524  1.0
  O  O12730  1  0.80073655  0.75273403  0.69768524  1.0
  O  O12731  1  0.80073655  0.91940070  0.69768524  1.0
  O  O12732  1  0.88406988  0.08606736  0.69768524  1.0
  O  O12733  1  0.88406988  0.25273403  0.69768524  1.0
  O  O12734  1  0.88406988  0.41940070  0.69768524  1.0
  O  O12735  1  0.88406988  0.58606736  0.69768524  1.0
  O  O12736  1  0.88406988  0.75273403  0.69768524  1.0
  O  O12737  1  0.88406988  0.91940070  0.69768524  1.0
  O  O12738  1  0.96740322  0.08606736  0.69768524  1.0
  O  O12739  1  0.96740322  0.25273403  0.69768524  1.0
  O  O12740  1  0.96740322  0.41940070  0.69768524  1.0
  O  O12741  1  0.96740322  0.58606736  0.69768524  1.0
  O  O12742  1  0.96740322  0.75273403  0.69768524  1.0
  O  O12743  1  0.96740322  0.91940070  0.69768524  1.0
  O  O12744  1  0.06425636  0.02244753  0.64795571  1.0
  O  O12745  1  0.06425636  0.18911420  0.64795571  1.0
  O  O12746  1  0.06425636  0.35578087  0.64795571  1.0
  O  O12747  1  0.06425636  0.52244753  0.64795571  1.0
  O  O12748  1  0.06425636  0.68911420  0.64795571  1.0
  O  O12749  1  0.06425636  0.85578087  0.64795571  1.0
  O  O12750  1  0.14758969  0.02244753  0.64795571  1.0
  O  O12751  1  0.14758969  0.18911420  0.64795571  1.0
  O  O12752  1  0.14758969  0.35578087  0.64795571  1.0
  O  O12753  1  0.14758969  0.52244753  0.64795571  1.0
  O  O12754  1  0.14758969  0.68911420  0.64795571  1.0
  O  O12755  1  0.14758969  0.85578087  0.64795571  1.0
  O  O12756  1  0.23092302  0.02244753  0.64795571  1.0
  O  O12757  1  0.23092302  0.18911420  0.64795571  1.0
  O  O12758  1  0.23092302  0.35578087  0.64795571  1.0
  O  O12759  1  0.23092302  0.52244753  0.64795571  1.0
  O  O12760  1  0.23092302  0.68911420  0.64795571  1.0
  O  O12761  1  0.23092302  0.85578087  0.64795571  1.0
  O  O12762  1  0.31425636  0.02244753  0.64795571  1.0
  O  O12763  1  0.31425636  0.18911420  0.64795571  1.0
  O  O12764  1  0.31425636  0.35578087  0.64795571  1.0
  O  O12765  1  0.31425636  0.52244753  0.64795571  1.0
  O  O12766  1  0.31425636  0.68911420  0.64795571  1.0
  O  O12767  1  0.31425636  0.85578087  0.64795571  1.0
  O  O12768  1  0.39758969  0.02244753  0.64795571  1.0
  O  O12769  1  0.39758969  0.18911420  0.64795571  1.0
  O  O12770  1  0.39758969  0.35578087  0.64795571  1.0
  O  O12771  1  0.39758969  0.52244753  0.64795571  1.0
  O  O12772  1  0.39758969  0.68911420  0.64795571  1.0
  O  O12773  1  0.39758969  0.85578087  0.64795571  1.0
  O  O12774  1  0.48092302  0.02244753  0.64795571  1.0
  O  O12775  1  0.48092302  0.18911420  0.64795571  1.0
  O  O12776  1  0.48092302  0.35578087  0.64795571  1.0
  O  O12777  1  0.48092302  0.52244753  0.64795571  1.0
  O  O12778  1  0.48092302  0.68911420  0.64795571  1.0
  O  O12779  1  0.48092302  0.85578087  0.64795571  1.0
  O  O12780  1  0.56425636  0.02244753  0.64795571  1.0
  O  O12781  1  0.56425636  0.18911420  0.64795571  1.0
  O  O12782  1  0.56425636  0.35578087  0.64795571  1.0
  O  O12783  1  0.56425636  0.52244753  0.64795571  1.0
  O  O12784  1  0.56425636  0.68911420  0.64795571  1.0
  O  O12785  1  0.56425636  0.85578087  0.64795571  1.0
  O  O12786  1  0.64758969  0.02244753  0.64795571  1.0
  O  O12787  1  0.64758969  0.18911420  0.64795571  1.0
  O  O12788  1  0.64758969  0.35578087  0.64795571  1.0
  O  O12789  1  0.64758969  0.52244753  0.64795571  1.0
  O  O12790  1  0.64758969  0.68911420  0.64795571  1.0
  O  O12791  1  0.64758969  0.85578087  0.64795571  1.0
  O  O12792  1  0.73092302  0.02244753  0.64795571  1.0
  O  O12793  1  0.73092302  0.18911420  0.64795571  1.0
  O  O12794  1  0.73092302  0.35578087  0.64795571  1.0
  O  O12795  1  0.73092302  0.52244753  0.64795571  1.0
  O  O12796  1  0.73092302  0.68911420  0.64795571  1.0
  O  O12797  1  0.73092302  0.85578087  0.64795571  1.0
  O  O12798  1  0.81425636  0.02244753  0.64795571  1.0
  O  O12799  1  0.81425636  0.18911420  0.64795571  1.0
  O  O12800  1  0.81425636  0.35578087  0.64795571  1.0
  O  O12801  1  0.81425636  0.52244753  0.64795571  1.0
  O  O12802  1  0.81425636  0.68911420  0.64795571  1.0
  O  O12803  1  0.81425636  0.85578087  0.64795571  1.0
  O  O12804  1  0.89758969  0.02244753  0.64795571  1.0
  O  O12805  1  0.89758969  0.18911420  0.64795571  1.0
  O  O12806  1  0.89758969  0.35578087  0.64795571  1.0
  O  O12807  1  0.89758969  0.52244753  0.64795571  1.0
  O  O12808  1  0.89758969  0.68911420  0.64795571  1.0
  O  O12809  1  0.89758969  0.85578087  0.64795571  1.0
  O  O12810  1  0.98092302  0.02244753  0.64795571  1.0
  O  O12811  1  0.98092302  0.18911420  0.64795571  1.0
  O  O12812  1  0.98092302  0.35578087  0.64795571  1.0
  O  O12813  1  0.98092302  0.52244753  0.64795571  1.0
  O  O12814  1  0.98092302  0.68911420  0.64795571  1.0
  O  O12815  1  0.98092302  0.85578087  0.64795571  1.0
  O  O12816  1  0.04044683  0.01054277  0.71938428  1.0
  O  O12817  1  0.04044683  0.17720944  0.71938428  1.0
  O  O12818  1  0.04044683  0.34387610  0.71938428  1.0
  O  O12819  1  0.04044683  0.51054277  0.71938428  1.0
  O  O12820  1  0.04044683  0.67720944  0.71938428  1.0
  O  O12821  1  0.04044683  0.84387610  0.71938428  1.0
  O  O12822  1  0.12378016  0.01054277  0.71938428  1.0
  O  O12823  1  0.12378016  0.17720944  0.71938428  1.0
  O  O12824  1  0.12378016  0.34387610  0.71938428  1.0
  O  O12825  1  0.12378016  0.51054277  0.71938428  1.0
  O  O12826  1  0.12378016  0.67720944  0.71938428  1.0
  O  O12827  1  0.12378016  0.84387610  0.71938428  1.0
  O  O12828  1  0.20711350  0.01054277  0.71938428  1.0
  O  O12829  1  0.20711350  0.17720944  0.71938428  1.0
  O  O12830  1  0.20711350  0.34387610  0.71938428  1.0
  O  O12831  1  0.20711350  0.51054277  0.71938428  1.0
  O  O12832  1  0.20711350  0.67720944  0.71938428  1.0
  O  O12833  1  0.20711350  0.84387610  0.71938428  1.0
  O  O12834  1  0.29044683  0.01054277  0.71938428  1.0
  O  O12835  1  0.29044683  0.17720944  0.71938428  1.0
  O  O12836  1  0.29044683  0.34387610  0.71938428  1.0
  O  O12837  1  0.29044683  0.51054277  0.71938428  1.0
  O  O12838  1  0.29044683  0.67720944  0.71938428  1.0
  O  O12839  1  0.29044683  0.84387610  0.71938428  1.0
  O  O12840  1  0.37378016  0.01054277  0.71938428  1.0
  O  O12841  1  0.37378016  0.17720944  0.71938428  1.0
  O  O12842  1  0.37378016  0.34387610  0.71938428  1.0
  O  O12843  1  0.37378016  0.51054277  0.71938428  1.0
  O  O12844  1  0.37378016  0.67720944  0.71938428  1.0
  O  O12845  1  0.37378016  0.84387610  0.71938428  1.0
  O  O12846  1  0.45711350  0.01054277  0.71938428  1.0
  O  O12847  1  0.45711350  0.17720944  0.71938428  1.0
  O  O12848  1  0.45711350  0.34387610  0.71938428  1.0
  O  O12849  1  0.45711350  0.51054277  0.71938428  1.0
  O  O12850  1  0.45711350  0.67720944  0.71938428  1.0
  O  O12851  1  0.45711350  0.84387610  0.71938428  1.0
  O  O12852  1  0.54044683  0.01054277  0.71938428  1.0
  O  O12853  1  0.54044683  0.17720944  0.71938428  1.0
  O  O12854  1  0.54044683  0.34387610  0.71938428  1.0
  O  O12855  1  0.54044683  0.51054277  0.71938428  1.0
  O  O12856  1  0.54044683  0.67720944  0.71938428  1.0
  O  O12857  1  0.54044683  0.84387610  0.71938428  1.0
  O  O12858  1  0.62378016  0.01054277  0.71938428  1.0
  O  O12859  1  0.62378016  0.17720944  0.71938428  1.0
  O  O12860  1  0.62378016  0.34387610  0.71938428  1.0
  O  O12861  1  0.62378016  0.51054277  0.71938428  1.0
  O  O12862  1  0.62378016  0.67720944  0.71938428  1.0
  O  O12863  1  0.62378016  0.84387610  0.71938428  1.0
  O  O12864  1  0.70711350  0.01054277  0.71938428  1.0
  O  O12865  1  0.70711350  0.17720944  0.71938428  1.0
  O  O12866  1  0.70711350  0.34387610  0.71938428  1.0
  O  O12867  1  0.70711350  0.51054277  0.71938428  1.0
  O  O12868  1  0.70711350  0.67720944  0.71938428  1.0
  O  O12869  1  0.70711350  0.84387610  0.71938428  1.0
  O  O12870  1  0.79044683  0.01054277  0.71938428  1.0
  O  O12871  1  0.79044683  0.17720944  0.71938428  1.0
  O  O12872  1  0.79044683  0.34387610  0.71938428  1.0
  O  O12873  1  0.79044683  0.51054277  0.71938428  1.0
  O  O12874  1  0.79044683  0.67720944  0.71938428  1.0
  O  O12875  1  0.79044683  0.84387610  0.71938428  1.0
  O  O12876  1  0.87378016  0.01054277  0.71938428  1.0
  O  O12877  1  0.87378016  0.17720944  0.71938428  1.0
  O  O12878  1  0.87378016  0.34387610  0.71938428  1.0
  O  O12879  1  0.87378016  0.51054277  0.71938428  1.0
  O  O12880  1  0.87378016  0.67720944  0.71938428  1.0
  O  O12881  1  0.87378016  0.84387610  0.71938428  1.0
  O  O12882  1  0.95711350  0.01054277  0.71938428  1.0
  O  O12883  1  0.95711350  0.17720944  0.71938428  1.0
  O  O12884  1  0.95711350  0.34387610  0.71938428  1.0
  O  O12885  1  0.95711350  0.51054277  0.71938428  1.0
  O  O12886  1  0.95711350  0.67720944  0.71938428  1.0
  O  O12887  1  0.95711350  0.84387610  0.71938428  1.0
  O  O12888  1  0.00896072  0.01691425  0.68377735  1.0
  O  O12889  1  0.00896072  0.18358092  0.68377735  1.0
  O  O12890  1  0.00896072  0.35024758  0.68377735  1.0
  O  O12891  1  0.00896072  0.51691425  0.68377735  1.0
  O  O12892  1  0.00896072  0.68358092  0.68377735  1.0
  O  O12893  1  0.00896072  0.85024758  0.68377735  1.0
  O  O12894  1  0.09229405  0.01691425  0.68377735  1.0
  O  O12895  1  0.09229405  0.18358092  0.68377735  1.0
  O  O12896  1  0.09229405  0.35024758  0.68377735  1.0
  O  O12897  1  0.09229405  0.51691425  0.68377735  1.0
  O  O12898  1  0.09229405  0.68358092  0.68377735  1.0
  O  O12899  1  0.09229405  0.85024758  0.68377735  1.0
  O  O12900  1  0.17562739  0.01691425  0.68377735  1.0
  O  O12901  1  0.17562739  0.18358092  0.68377735  1.0
  O  O12902  1  0.17562739  0.35024758  0.68377735  1.0
  O  O12903  1  0.17562739  0.51691425  0.68377735  1.0
  O  O12904  1  0.17562739  0.68358092  0.68377735  1.0
  O  O12905  1  0.17562739  0.85024758  0.68377735  1.0
  O  O12906  1  0.25896072  0.01691425  0.68377735  1.0
  O  O12907  1  0.25896072  0.18358092  0.68377735  1.0
  O  O12908  1  0.25896072  0.35024758  0.68377735  1.0
  O  O12909  1  0.25896072  0.51691425  0.68377735  1.0
  O  O12910  1  0.25896072  0.68358092  0.68377735  1.0
  O  O12911  1  0.25896072  0.85024758  0.68377735  1.0
  O  O12912  1  0.34229405  0.01691425  0.68377735  1.0
  O  O12913  1  0.34229405  0.18358092  0.68377735  1.0
  O  O12914  1  0.34229405  0.35024758  0.68377735  1.0
  O  O12915  1  0.34229405  0.51691425  0.68377735  1.0
  O  O12916  1  0.34229405  0.68358092  0.68377735  1.0
  O  O12917  1  0.34229405  0.85024758  0.68377735  1.0
  O  O12918  1  0.42562739  0.01691425  0.68377735  1.0
  O  O12919  1  0.42562739  0.18358092  0.68377735  1.0
  O  O12920  1  0.42562739  0.35024758  0.68377735  1.0
  O  O12921  1  0.42562739  0.51691425  0.68377735  1.0
  O  O12922  1  0.42562739  0.68358092  0.68377735  1.0
  O  O12923  1  0.42562739  0.85024758  0.68377735  1.0
  O  O12924  1  0.50896072  0.01691425  0.68377735  1.0
  O  O12925  1  0.50896072  0.18358092  0.68377735  1.0
  O  O12926  1  0.50896072  0.35024758  0.68377735  1.0
  O  O12927  1  0.50896072  0.51691425  0.68377735  1.0
  O  O12928  1  0.50896072  0.68358092  0.68377735  1.0
  O  O12929  1  0.50896072  0.85024758  0.68377735  1.0
  O  O12930  1  0.59229405  0.01691425  0.68377735  1.0
  O  O12931  1  0.59229405  0.18358092  0.68377735  1.0
  O  O12932  1  0.59229405  0.35024758  0.68377735  1.0
  O  O12933  1  0.59229405  0.51691425  0.68377735  1.0
  O  O12934  1  0.59229405  0.68358092  0.68377735  1.0
  O  O12935  1  0.59229405  0.85024758  0.68377735  1.0
  O  O12936  1  0.67562739  0.01691425  0.68377735  1.0
  O  O12937  1  0.67562739  0.18358092  0.68377735  1.0
  O  O12938  1  0.67562739  0.35024758  0.68377735  1.0
  O  O12939  1  0.67562739  0.51691425  0.68377735  1.0
  O  O12940  1  0.67562739  0.68358092  0.68377735  1.0
  O  O12941  1  0.67562739  0.85024758  0.68377735  1.0
  O  O12942  1  0.75896072  0.01691425  0.68377735  1.0
  O  O12943  1  0.75896072  0.18358092  0.68377735  1.0
  O  O12944  1  0.75896072  0.35024758  0.68377735  1.0
  O  O12945  1  0.75896072  0.51691425  0.68377735  1.0
  O  O12946  1  0.75896072  0.68358092  0.68377735  1.0
  O  O12947  1  0.75896072  0.85024758  0.68377735  1.0
  O  O12948  1  0.84229405  0.01691425  0.68377735  1.0
  O  O12949  1  0.84229405  0.18358092  0.68377735  1.0
  O  O12950  1  0.84229405  0.35024758  0.68377735  1.0
  O  O12951  1  0.84229405  0.51691425  0.68377735  1.0
  O  O12952  1  0.84229405  0.68358092  0.68377735  1.0
  O  O12953  1  0.84229405  0.85024758  0.68377735  1.0
  O  O12954  1  0.92562739  0.01691425  0.68377735  1.0
  O  O12955  1  0.92562739  0.18358092  0.68377735  1.0
  O  O12956  1  0.92562739  0.35024758  0.68377735  1.0
  O  O12957  1  0.92562739  0.51691425  0.68377735  1.0
  O  O12958  1  0.92562739  0.68358092  0.68377735  1.0
  O  O12959  1  0.92562739  0.85024758  0.68377735  1.0
  O  O12960  1  0.06090653  0.06838864  0.65633307  1.0
  O  O12961  1  0.06090653  0.23505531  0.65633307  1.0
  O  O12962  1  0.06090653  0.40172198  0.65633307  1.0
  O  O12963  1  0.06090653  0.56838864  0.65633307  1.0
  O  O12964  1  0.06090653  0.73505531  0.65633307  1.0
  O  O12965  1  0.06090653  0.90172198  0.65633307  1.0
  O  O12966  1  0.14423986  0.06838864  0.65633307  1.0
  O  O12967  1  0.14423986  0.23505531  0.65633307  1.0
  O  O12968  1  0.14423986  0.40172198  0.65633307  1.0
  O  O12969  1  0.14423986  0.56838864  0.65633307  1.0
  O  O12970  1  0.14423986  0.73505531  0.65633307  1.0
  O  O12971  1  0.14423986  0.90172198  0.65633307  1.0
  O  O12972  1  0.22757319  0.06838864  0.65633307  1.0
  O  O12973  1  0.22757319  0.23505531  0.65633307  1.0
  O  O12974  1  0.22757319  0.40172198  0.65633307  1.0
  O  O12975  1  0.22757319  0.56838864  0.65633307  1.0
  O  O12976  1  0.22757319  0.73505531  0.65633307  1.0
  O  O12977  1  0.22757319  0.90172198  0.65633307  1.0
  O  O12978  1  0.31090653  0.06838864  0.65633307  1.0
  O  O12979  1  0.31090653  0.23505531  0.65633307  1.0
  O  O12980  1  0.31090653  0.40172198  0.65633307  1.0
  O  O12981  1  0.31090653  0.56838864  0.65633307  1.0
  O  O12982  1  0.31090653  0.73505531  0.65633307  1.0
  O  O12983  1  0.31090653  0.90172198  0.65633307  1.0
  O  O12984  1  0.39423986  0.06838864  0.65633307  1.0
  O  O12985  1  0.39423986  0.23505531  0.65633307  1.0
  O  O12986  1  0.39423986  0.40172198  0.65633307  1.0
  O  O12987  1  0.39423986  0.56838864  0.65633307  1.0
  O  O12988  1  0.39423986  0.73505531  0.65633307  1.0
  O  O12989  1  0.39423986  0.90172198  0.65633307  1.0
  O  O12990  1  0.47757319  0.06838864  0.65633307  1.0
  O  O12991  1  0.47757319  0.23505531  0.65633307  1.0
  O  O12992  1  0.47757319  0.40172198  0.65633307  1.0
  O  O12993  1  0.47757319  0.56838864  0.65633307  1.0
  O  O12994  1  0.47757319  0.73505531  0.65633307  1.0
  O  O12995  1  0.47757319  0.90172198  0.65633307  1.0
  O  O12996  1  0.56090653  0.06838864  0.65633307  1.0
  O  O12997  1  0.56090653  0.23505531  0.65633307  1.0
  O  O12998  1  0.56090653  0.40172198  0.65633307  1.0
  O  O12999  1  0.56090653  0.56838864  0.65633307  1.0
  O  O13000  1  0.56090653  0.73505531  0.65633307  1.0
  O  O13001  1  0.56090653  0.90172198  0.65633307  1.0
  O  O13002  1  0.64423986  0.06838864  0.65633307  1.0
  O  O13003  1  0.64423986  0.23505531  0.65633307  1.0
  O  O13004  1  0.64423986  0.40172198  0.65633307  1.0
  O  O13005  1  0.64423986  0.56838864  0.65633307  1.0
  O  O13006  1  0.64423986  0.73505531  0.65633307  1.0
  O  O13007  1  0.64423986  0.90172198  0.65633307  1.0
  O  O13008  1  0.72757319  0.06838864  0.65633307  1.0
  O  O13009  1  0.72757319  0.23505531  0.65633307  1.0
  O  O13010  1  0.72757319  0.40172198  0.65633307  1.0
  O  O13011  1  0.72757319  0.56838864  0.65633307  1.0
  O  O13012  1  0.72757319  0.73505531  0.65633307  1.0
  O  O13013  1  0.72757319  0.90172198  0.65633307  1.0
  O  O13014  1  0.81090653  0.06838864  0.65633307  1.0
  O  O13015  1  0.81090653  0.23505531  0.65633307  1.0
  O  O13016  1  0.81090653  0.40172198  0.65633307  1.0
  O  O13017  1  0.81090653  0.56838864  0.65633307  1.0
  O  O13018  1  0.81090653  0.73505531  0.65633307  1.0
  O  O13019  1  0.81090653  0.90172198  0.65633307  1.0
  O  O13020  1  0.89423986  0.06838864  0.65633307  1.0
  O  O13021  1  0.89423986  0.23505531  0.65633307  1.0
  O  O13022  1  0.89423986  0.40172198  0.65633307  1.0
  O  O13023  1  0.89423986  0.56838864  0.65633307  1.0
  O  O13024  1  0.89423986  0.73505531  0.65633307  1.0
  O  O13025  1  0.89423986  0.90172198  0.65633307  1.0
  O  O13026  1  0.97757319  0.06838864  0.65633307  1.0
  O  O13027  1  0.97757319  0.23505531  0.65633307  1.0
  O  O13028  1  0.97757319  0.40172198  0.65633307  1.0
  O  O13029  1  0.97757319  0.56838864  0.65633307  1.0
  O  O13030  1  0.97757319  0.73505531  0.65633307  1.0
  O  O13031  1  0.97757319  0.90172198  0.65633307  1.0
  O  O13032  1  0.03709700  0.05648388  0.72776164  1.0
  O  O13033  1  0.03709700  0.22315055  0.72776164  1.0
  O  O13034  1  0.03709700  0.38981722  0.72776164  1.0
  O  O13035  1  0.03709700  0.55648388  0.72776164  1.0
  O  O13036  1  0.03709700  0.72315055  0.72776164  1.0
  O  O13037  1  0.03709700  0.88981722  0.72776164  1.0
  O  O13038  1  0.12043034  0.05648388  0.72776164  1.0
  O  O13039  1  0.12043034  0.22315055  0.72776164  1.0
  O  O13040  1  0.12043034  0.38981722  0.72776164  1.0
  O  O13041  1  0.12043034  0.55648388  0.72776164  1.0
  O  O13042  1  0.12043034  0.72315055  0.72776164  1.0
  O  O13043  1  0.12043034  0.88981722  0.72776164  1.0
  O  O13044  1  0.20376367  0.05648388  0.72776164  1.0
  O  O13045  1  0.20376367  0.22315055  0.72776164  1.0
  O  O13046  1  0.20376367  0.38981722  0.72776164  1.0
  O  O13047  1  0.20376367  0.55648388  0.72776164  1.0
  O  O13048  1  0.20376367  0.72315055  0.72776164  1.0
  O  O13049  1  0.20376367  0.88981722  0.72776164  1.0
  O  O13050  1  0.28709700  0.05648388  0.72776164  1.0
  O  O13051  1  0.28709700  0.22315055  0.72776164  1.0
  O  O13052  1  0.28709700  0.38981722  0.72776164  1.0
  O  O13053  1  0.28709700  0.55648388  0.72776164  1.0
  O  O13054  1  0.28709700  0.72315055  0.72776164  1.0
  O  O13055  1  0.28709700  0.88981722  0.72776164  1.0
  O  O13056  1  0.37043034  0.05648388  0.72776164  1.0
  O  O13057  1  0.37043034  0.22315055  0.72776164  1.0
  O  O13058  1  0.37043034  0.38981722  0.72776164  1.0
  O  O13059  1  0.37043034  0.55648388  0.72776164  1.0
  O  O13060  1  0.37043034  0.72315055  0.72776164  1.0
  O  O13061  1  0.37043034  0.88981722  0.72776164  1.0
  O  O13062  1  0.45376367  0.05648388  0.72776164  1.0
  O  O13063  1  0.45376367  0.22315055  0.72776164  1.0
  O  O13064  1  0.45376367  0.38981722  0.72776164  1.0
  O  O13065  1  0.45376367  0.55648388  0.72776164  1.0
  O  O13066  1  0.45376367  0.72315055  0.72776164  1.0
  O  O13067  1  0.45376367  0.88981722  0.72776164  1.0
  O  O13068  1  0.53709700  0.05648388  0.72776164  1.0
  O  O13069  1  0.53709700  0.22315055  0.72776164  1.0
  O  O13070  1  0.53709700  0.38981722  0.72776164  1.0
  O  O13071  1  0.53709700  0.55648388  0.72776164  1.0
  O  O13072  1  0.53709700  0.72315055  0.72776164  1.0
  O  O13073  1  0.53709700  0.88981722  0.72776164  1.0
  O  O13074  1  0.62043034  0.05648388  0.72776164  1.0
  O  O13075  1  0.62043034  0.22315055  0.72776164  1.0
  O  O13076  1  0.62043034  0.38981722  0.72776164  1.0
  O  O13077  1  0.62043034  0.55648388  0.72776164  1.0
  O  O13078  1  0.62043034  0.72315055  0.72776164  1.0
  O  O13079  1  0.62043034  0.88981722  0.72776164  1.0
  O  O13080  1  0.70376367  0.05648388  0.72776164  1.0
  O  O13081  1  0.70376367  0.22315055  0.72776164  1.0
  O  O13082  1  0.70376367  0.38981722  0.72776164  1.0
  O  O13083  1  0.70376367  0.55648388  0.72776164  1.0
  O  O13084  1  0.70376367  0.72315055  0.72776164  1.0
  O  O13085  1  0.70376367  0.88981722  0.72776164  1.0
  O  O13086  1  0.78709700  0.05648388  0.72776164  1.0
  O  O13087  1  0.78709700  0.22315055  0.72776164  1.0
  O  O13088  1  0.78709700  0.38981722  0.72776164  1.0
  O  O13089  1  0.78709700  0.55648388  0.72776164  1.0
  O  O13090  1  0.78709700  0.72315055  0.72776164  1.0
  O  O13091  1  0.78709700  0.88981722  0.72776164  1.0
  O  O13092  1  0.87043034  0.05648388  0.72776164  1.0
  O  O13093  1  0.87043034  0.22315055  0.72776164  1.0
  O  O13094  1  0.87043034  0.38981722  0.72776164  1.0
  O  O13095  1  0.87043034  0.55648388  0.72776164  1.0
  O  O13096  1  0.87043034  0.72315055  0.72776164  1.0
  O  O13097  1  0.87043034  0.88981722  0.72776164  1.0
  O  O13098  1  0.95376367  0.05648388  0.72776164  1.0
  O  O13099  1  0.95376367  0.22315055  0.72776164  1.0
  O  O13100  1  0.95376367  0.38981722  0.72776164  1.0
  O  O13101  1  0.95376367  0.55648388  0.72776164  1.0
  O  O13102  1  0.95376367  0.72315055  0.72776164  1.0
  O  O13103  1  0.95376367  0.88981722  0.72776164  1.0
  O  O13104  1  0.05123563  0.03916439  0.68716384  1.0
  O  O13105  1  0.05123563  0.20583106  0.68716384  1.0
  O  O13106  1  0.05123563  0.37249773  0.68716384  1.0
  O  O13107  1  0.05123563  0.53916439  0.68716384  1.0
  O  O13108  1  0.05123563  0.70583106  0.68716384  1.0
  O  O13109  1  0.05123563  0.87249773  0.68716384  1.0
  O  O13110  1  0.13456896  0.03916439  0.68716384  1.0
  O  O13111  1  0.13456896  0.20583106  0.68716384  1.0
  O  O13112  1  0.13456896  0.37249773  0.68716384  1.0
  O  O13113  1  0.13456896  0.53916439  0.68716384  1.0
  O  O13114  1  0.13456896  0.70583106  0.68716384  1.0
  O  O13115  1  0.13456896  0.87249773  0.68716384  1.0
  O  O13116  1  0.21790230  0.03916439  0.68716384  1.0
  O  O13117  1  0.21790230  0.20583106  0.68716384  1.0
  O  O13118  1  0.21790230  0.37249773  0.68716384  1.0
  O  O13119  1  0.21790230  0.53916439  0.68716384  1.0
  O  O13120  1  0.21790230  0.70583106  0.68716384  1.0
  O  O13121  1  0.21790230  0.87249773  0.68716384  1.0
  O  O13122  1  0.30123563  0.03916439  0.68716384  1.0
  O  O13123  1  0.30123563  0.20583106  0.68716384  1.0
  O  O13124  1  0.30123563  0.37249773  0.68716384  1.0
  O  O13125  1  0.30123563  0.53916439  0.68716384  1.0
  O  O13126  1  0.30123563  0.70583106  0.68716384  1.0
  O  O13127  1  0.30123563  0.87249773  0.68716384  1.0
  O  O13128  1  0.38456896  0.03916439  0.68716384  1.0
  O  O13129  1  0.38456896  0.20583106  0.68716384  1.0
  O  O13130  1  0.38456896  0.37249773  0.68716384  1.0
  O  O13131  1  0.38456896  0.53916439  0.68716384  1.0
  O  O13132  1  0.38456896  0.70583106  0.68716384  1.0
  O  O13133  1  0.38456896  0.87249773  0.68716384  1.0
  O  O13134  1  0.46790230  0.03916439  0.68716384  1.0
  O  O13135  1  0.46790230  0.20583106  0.68716384  1.0
  O  O13136  1  0.46790230  0.37249773  0.68716384  1.0
  O  O13137  1  0.46790230  0.53916439  0.68716384  1.0
  O  O13138  1  0.46790230  0.70583106  0.68716384  1.0
  O  O13139  1  0.46790230  0.87249773  0.68716384  1.0
  O  O13140  1  0.55123563  0.03916439  0.68716384  1.0
  O  O13141  1  0.55123563  0.20583106  0.68716384  1.0
  O  O13142  1  0.55123563  0.37249773  0.68716384  1.0
  O  O13143  1  0.55123563  0.53916439  0.68716384  1.0
  O  O13144  1  0.55123563  0.70583106  0.68716384  1.0
  O  O13145  1  0.55123563  0.87249773  0.68716384  1.0
  O  O13146  1  0.63456896  0.03916439  0.68716384  1.0
  O  O13147  1  0.63456896  0.20583106  0.68716384  1.0
  O  O13148  1  0.63456896  0.37249773  0.68716384  1.0
  O  O13149  1  0.63456896  0.53916439  0.68716384  1.0
  O  O13150  1  0.63456896  0.70583106  0.68716384  1.0
  O  O13151  1  0.63456896  0.87249773  0.68716384  1.0
  O  O13152  1  0.71790230  0.03916439  0.68716384  1.0
  O  O13153  1  0.71790230  0.20583106  0.68716384  1.0
  O  O13154  1  0.71790230  0.37249773  0.68716384  1.0
  O  O13155  1  0.71790230  0.53916439  0.68716384  1.0
  O  O13156  1  0.71790230  0.70583106  0.68716384  1.0
  O  O13157  1  0.71790230  0.87249773  0.68716384  1.0
  O  O13158  1  0.80123563  0.03916439  0.68716384  1.0
  O  O13159  1  0.80123563  0.20583106  0.68716384  1.0
  O  O13160  1  0.80123563  0.37249773  0.68716384  1.0
  O  O13161  1  0.80123563  0.53916439  0.68716384  1.0
  O  O13162  1  0.80123563  0.70583106  0.68716384  1.0
  O  O13163  1  0.80123563  0.87249773  0.68716384  1.0
  O  O13164  1  0.88456896  0.03916439  0.68716384  1.0
  O  O13165  1  0.88456896  0.20583106  0.68716384  1.0
  O  O13166  1  0.88456896  0.37249773  0.68716384  1.0
  O  O13167  1  0.88456896  0.53916439  0.68716384  1.0
  O  O13168  1  0.88456896  0.70583106  0.68716384  1.0
  O  O13169  1  0.88456896  0.87249773  0.68716384  1.0
  O  O13170  1  0.96790230  0.03916439  0.68716384  1.0
  O  O13171  1  0.96790230  0.20583106  0.68716384  1.0
  O  O13172  1  0.96790230  0.37249773  0.68716384  1.0
  O  O13173  1  0.96790230  0.53916439  0.68716384  1.0
  O  O13174  1  0.96790230  0.70583106  0.68716384  1.0
  O  O13175  1  0.96790230  0.87249773  0.68716384  1.0
